Using: /usr/bin/time -p /usr/eelocal/synopsys/hspice-vf2011.09/hspice/amd64/hspice opamp_thd.sp
 ****** HSPICE -- F-2011.09 64-BIT (Sep  5 2011) linux ******                   
  Copyright (C) 2011 Synopsys, Inc. All Rights Reserved.                        
  Unpublished-rights reserved under US copyright laws.
  This program is protected by law and is subject to the
  terms and conditions of the license agreement from Synopsys.
  Use of this program is your acceptance to be bound by the
  license agreement. HSPICE is the trademark of Synopsys, Inc.
  Input File: opamp_thd.sp                                                      
  Command line options: opamp_thd.sp
 lic:  
 lic: FLEXlm: v10.8 
 lic: USER:   kslamaf              HOSTNAME: EEX052 
 lic: HOSTID:                      PID:      15297 
 lic: Using FLEXlm license file: 
 lic: 27041@eesvr5.ece.ust.hk 
 lic: Checkout 1 hspice 
 lic: License/Maintenance for hspice will expire on 20-may-2021/2020.12 
 lic: 1(in_use)/25(total) FLOATING license(s) on SERVER eesvr5.ece.ust.hk 
 lic:   
 Init: read install configuration file: /usr/eelocal/synopsys/hspice-vf2011.09/hspice/meta.cfg
1****** HSPICE -- F-2011.09 64-BIT (Sep  5 2011) linux ******                   
 ******  
 * eesm5120 amplifier design

  ******  circuit name directory
 circuit number to circuit name directory
   number circuitname                     definition         multiplier
        0 main circuit
        1 x1.                             folded_cascode_amp
                                                                 1.00 
        2 x1.x1.                          aux_p              1.00 
        3 x1.x2.                          aux_p              1.00 
        4 x1.x3.                          aux_n              1.00 
        5 x1.x4.                          aux_n              1.00 
  **info** (opamp_thd.sp:17) DC voltage reset to initial transient source value              in source        0:vin1                new dc=  0.0000D+00
 

  
      
 **info** set option symb=1 internally to help for convergence.
 *****************************************************************
 ******  option summary
 ******
 runlvl  = 3         bypass  = 2         
  Opening plot unit= 15
 file=opamp_thd.pa0                                                            

1****** HSPICE -- F-2011.09 64-BIT (Sep  5 2011) linux ******                   
 ******  
 * eesm5120 amplifier design

  ******  operating point information tnom=  25.000 temp=  25.000 *****
 ***** operating point status is voltage   simulation time is     0.     
    node    =voltage      node    =voltage      node    =voltage

 +0:100     =   0.      0:vdd     =   1.0000  0:vin+    =   0.     
 +0:vin-    =   0.      0:vn      = -52.0977u 0:vo+     =-104.1953u
 +0:vo-     =-104.1953u 0:vp      = -52.0977u 0:vss     =  -1.0000 
 +1:1       = 325.7934m 1:2       = 602.4784m 1:3       = 450.8562m
 +1:4       = 854.8062m 1:5       = 854.8062m 1:6       =-444.1419m
 +1:7       = 273.1659m 1:8       =-868.1736m 1:9       =-868.1736m
 +1:10      =-400.0487m 1:11      = 955.2339m 1:12      = 196.2497m
 +1:13      = 196.2497m 1:14      =-219.0395m 1:15      =-219.0395m
 +2:1       = 287.0454m 3:1       = 287.0454m 4:2       =-302.1980m
 +5:2       =-302.1980m

 fourier components of transient response v(vo-,vo+)
 dc component = 7.03163e-08
  
 harmonic frequency fourier   normalized phase     normalized  
 no       (hz)      component component  (deg)     phase (deg) 
 1        30.0000k  1.00179   1.00000    179.971   0.          
 2        60.0000k  163.115n  162.823n   -5.85617  -185.828    
 3        90.0000k  4.06127m  4.05400m   179.966   -4.93856m   
 4        120.000k  386.006n  385.314n   -76.3280  -256.299    
 5        150.000k  214.583u  214.199u   -28.6255  -208.597    
 6        180.000k  453.022n  452.211n   -104.385  -284.356    
 7        210.000k  228.905u  228.495u   -136.664  -316.635    
 8        240.000k  144.470n  144.211n   -126.279  -306.251    
 9        270.000k  73.0716u  72.9408u   -114.655  -294.626    
  
 total harmonic distortion =   0.406674  percent

          ***** job concluded
1****** HSPICE -- F-2011.09 64-BIT (Sep  5 2011) linux ******                   
 ******  
 * eesm5120 amplifier design

  ******  job statistics summary tnom=  25.000 temp=  25.000 *****
  
  
 ******  Machine Information  ******
 CPU:
 model name	: Intel(R) Xeon(R) CPU E5-2690 0 @ 2.90GHz
 cpu MHz	: 1200.000
  
 OS:
 Linux version 2.6.32-754.28.1.el6.x86_64 (mockbuild@x86-02.bsys.centos.org) (gc
 c version 4.4.7 20120313 (Red Hat 4.4.7-23) (GCC) ) #1 SMP Wed Mar 11 18:38:45 
 UTC 2020


  ******  HSPICE Threads Information  ******

  Command Line Threads Count :     1
  Available CPU Count        :    32
  Actual Threads Count       :     1


  ******  Circuit Statistics  ******
  # nodes       =      29 # elements   =      48
  # resistors   =       4 # capacitors =       0 # inductors   =       0
  # mutual_inds =       0 # vccs       =       0 # vcvs        =       0
  # cccs        =       0 # ccvs       =       0 # volt_srcs   =       5
  # curr_srcs   =       1 # diodes     =       0 # bjts        =       0
  # jfets       =       0 # mosfets    =      38 # U elements  =       0
  # T elements  =       0 # W elements =       0 # B elements  =       0
  # S elements  =       0 # P elements =       0 # va device   =       0
  # vector_srcs =       0


  ******  Runtime Statistics (seconds)  ******

  analysis           time    # points   tot. iter  conv.iter
  op point           0.00           1          26
  transient          0.67      500001       13510        6305 rev=       600
  readin             0.01
  errchk             0.00
  setup              0.01
  output             0.00


           peak memory used        129.46 megabytes
           total cpu time            0.69 seconds
           total elapsed time        0.72 seconds
           job started at     23:12:23 04/07/2021
           job ended   at     23:12:24 04/07/2021


 lic: Release hspice token(s) 
