Using: /usr/bin/time -p /usr/eelocal/synopsys/hspice-vf2011.09/hspice/amd64/hspice opamp_diffgain.sp
 ****** HSPICE -- F-2011.09 64-BIT (Sep  5 2011) linux ******                   
  Copyright (C) 2011 Synopsys, Inc. All Rights Reserved.                        
  Unpublished-rights reserved under US copyright laws.
  This program is protected by law and is subject to the
  terms and conditions of the license agreement from Synopsys.
  Use of this program is your acceptance to be bound by the
  license agreement. HSPICE is the trademark of Synopsys, Inc.
  Input File: opamp_diffgain.sp                                                 
  Command line options: opamp_diffgain.sp
 lic:  
 lic: FLEXlm: v10.8 
 lic: USER:   kslamaf              HOSTNAME: EEX052 
 lic: HOSTID:                      PID:      23216 
 lic: Using FLEXlm license file: 
 lic: 27041@eesvr5.ece.ust.hk 
 lic: Checkout 1 hspice 
 lic: License/Maintenance for hspice will expire on 20-may-2021/2020.12 
 lic: 1(in_use)/25(total) FLOATING license(s) on SERVER eesvr5.ece.ust.hk 
 lic:   
 Init: read install configuration file: /usr/eelocal/synopsys/hspice-vf2011.09/hspice/meta.cfg
1****** HSPICE -- F-2011.09 64-BIT (Sep  5 2011) linux ******                   
 ******  
 * eesm5120 amplifier design

  ******  circuit name directory
 circuit number to circuit name directory
   number circuitname                     definition         multiplier
        0 main circuit
        1 x1.                             folded_cascode_amp
                                                                 1.00 
        2 x1.x1.                          aux_p              1.00 
        3 x1.x2.                          aux_p              1.00 
        4 x1.x3.                          aux_n              1.00 
        5 x1.x4.                          aux_n              1.00 
 

  
      
 **info** set option symb=1 internally to help for convergence.
 *****************************************************************
 ******  option summary
 ******
 runlvl  = 3         bypass  = 2         
  Opening plot unit= 15
 file=opamp_diffgain.pa0                                                       





 ****     small-signal transfer characteristics

         vs        input resistance at vs        output resistance at v(vo+,vo-)  v(vo+,vo-)/vs       

    -100.0000m           1.000e+20                       1.7646k                  251.2567m
     -99.9000m           1.000e+20                       1.7648k                  251.7563m
     -99.8000m           1.000e+20                       1.7650k                  252.2568m
     -99.7000m           1.000e+20                       1.7653k                  252.7582m
     -99.6000m           1.000e+20                       1.7655k                  253.2605m
     -99.5000m           1.000e+20                       1.7657k                  253.7638m
     -99.4000m           1.000e+20                       1.7659k                  254.2680m
     -99.3000m           1.000e+20                       1.7662k                  254.7731m
     -99.2000m           1.000e+20                       1.7664k                  255.2791m
     -99.1000m           1.000e+20                       1.7666k                  255.7861m
     -99.0000m           1.000e+20                       1.7668k                  256.2940m
     -98.9000m           1.000e+20                       1.7671k                  256.8029m
     -98.8000m           1.000e+20                       1.7673k                  257.3127m
     -98.7000m           1.000e+20                       1.7675k                  257.8234m
     -98.6000m           1.000e+20                       1.7678k                  258.3350m
     -98.5000m           1.000e+20                       1.7680k                  258.8476m
     -98.4000m           1.000e+20                       1.7682k                  259.3611m
     -98.3000m           1.000e+20                       1.7684k                  259.8756m
     -98.2000m           1.000e+20                       1.7687k                  260.3910m
     -98.1000m           1.000e+20                       1.7689k                  260.9074m
     -98.0000m           1.000e+20                       1.7691k                  261.4247m
     -97.9000m           1.000e+20                       1.7694k                  261.9430m
     -97.8000m           1.000e+20                       1.7696k                  262.4622m
     -97.7000m           1.000e+20                       1.7698k                  262.9824m
     -97.6000m           1.000e+20                       1.7701k                  263.5035m
     -97.5000m           1.000e+20                       1.7703k                  264.0256m
     -97.4000m           1.000e+20                       1.7705k                  264.5486m
     -97.3000m           1.000e+20                       1.7708k                  265.0726m
     -97.2000m           1.000e+20                       1.7710k                  265.5976m
     -97.1000m           1.000e+20                       1.7713k                  266.1235m
     -97.0000m           1.000e+20                       1.7715k                  266.6504m
     -96.9000m           1.000e+20                       1.7717k                  267.1783m
     -96.8000m           1.000e+20                       1.7720k                  267.7071m
     -96.7000m           1.000e+20                       1.7722k                  268.2369m
     -96.6000m           1.000e+20                       1.7725k                  268.7677m
     -96.5000m           1.000e+20                       1.7727k                  269.2994m
     -96.4000m           1.000e+20                       1.7729k                  269.8321m
     -96.3000m           1.000e+20                       1.7732k                  270.3658m
     -96.2000m           1.000e+20                       1.7734k                  270.9005m
     -96.1000m           1.000e+20                       1.7737k                  271.4362m
     -96.0000m           1.000e+20                       1.7739k                  271.9728m
     -95.9000m           1.000e+20                       1.7742k                  272.5104m
     -95.8000m           1.000e+20                       1.7744k                  273.0491m
     -95.7000m           1.000e+20                       1.7747k                  273.5887m
     -95.6000m           1.000e+20                       1.7749k                  274.1293m
     -95.5000m           1.000e+20                       1.7751k                  274.6709m
     -95.4000m           1.000e+20                       1.7754k                  275.2135m
     -95.3000m           1.000e+20                       1.7756k                  275.7571m
     -95.2000m           1.000e+20                       1.7759k                  276.3017m
     -95.1000m           1.000e+20                       1.7761k                  276.8473m
     -95.0000m           1.000e+20                       1.7764k                  277.3938m
     -94.9000m           1.000e+20                       1.7766k                  277.9415m
     -94.8000m           1.000e+20                       1.7769k                  278.4901m
     -94.7000m           1.000e+20                       1.7772k                  279.0397m
     -94.6000m           1.000e+20                       1.7774k                  279.5903m
     -94.5000m           1.000e+20                       1.7777k                  280.1420m
     -94.4000m           1.000e+20                       1.7779k                  280.6947m
     -94.3000m           1.000e+20                       1.7782k                  281.2484m
     -94.2000m           1.000e+20                       1.7784k                  281.8031m
     -94.1000m           1.000e+20                       1.7787k                  282.3588m
     -94.0000m           1.000e+20                       1.7789k                  282.9156m
     -93.9000m           1.000e+20                       1.7792k                  283.4734m
     -93.8000m           1.000e+20                       1.7795k                  284.0323m
     -93.7000m           1.000e+20                       1.7797k                  284.5922m
     -93.6000m           1.000e+20                       1.7800k                  285.1531m
     -93.5000m           1.000e+20                       1.7802k                  285.7151m
     -93.4000m           1.000e+20                       1.7805k                  286.2781m
     -93.3000m           1.000e+20                       1.7808k                  286.8422m
     -93.2000m           1.000e+20                       1.7810k                  287.4073m
     -93.1000m           1.000e+20                       1.7813k                  287.9735m
     -93.0000m           1.000e+20                       1.7816k                  288.5407m
     -92.9000m           1.000e+20                       1.7818k                  289.1091m
     -92.8000m           1.000e+20                       1.7821k                  289.6785m
     -92.7000m           1.000e+20                       1.7824k                  290.2489m
     -92.6000m           1.000e+20                       1.7826k                  290.8205m
     -92.5000m           1.000e+20                       1.7829k                  291.3932m
     -92.4000m           1.000e+20                       1.7832k                  291.9669m
     -92.3000m           1.000e+20                       1.7834k                  292.5417m
     -92.2000m           1.000e+20                       1.7837k                  293.1177m
     -92.1000m           1.000e+20                       1.7840k                  293.6948m
     -92.0000m           1.000e+20                       1.7843k                  294.2730m
     -91.9000m           1.000e+20                       1.7845k                  294.8523m
     -91.8000m           1.000e+20                       1.7848k                  295.4328m
     -91.7000m           1.000e+20                       1.7851k                  296.0144m
     -91.6000m           1.000e+20                       1.7854k                  296.5972m
     -91.5000m           1.000e+20                       1.7856k                  297.1811m
     -91.4000m           1.000e+20                       1.7859k                  297.7663m
     -91.3000m           1.000e+20                       1.7862k                  298.3526m
     -91.2000m           1.000e+20                       1.7865k                  298.9402m
     -91.1000m           1.000e+20                       1.7867k                  299.5290m
     -91.0000m           1.000e+20                       1.7870k                  300.1191m
     -90.9000m           1.000e+20                       1.7873k                  300.7105m
     -90.8000m           1.000e+20                       1.7876k                  301.3031m
     -90.7000m           1.000e+20                       1.7879k                  301.8971m
     -90.6000m           1.000e+20                       1.7882k                  302.4925m
     -90.5000m           1.000e+20                       1.7884k                  303.0893m
     -90.4000m           1.000e+20                       1.7887k                  303.6875m
     -90.3000m           1.000e+20                       1.7890k                  304.2871m
     -90.2000m           1.000e+20                       1.7893k                  304.8883m
     -90.1000m           1.000e+20                       1.7896k                  305.4911m
     -90.0000m           1.000e+20                       1.7899k                  306.0956m
     -89.9000m           1.000e+20                       1.7902k                  306.7018m
     -89.8000m           1.000e+20                       1.7904k                  307.3097m
     -89.7000m           1.000e+20                       1.7907k                  307.9196m
     -89.6000m           1.000e+20                       1.7910k                  308.5315m
     -89.5000m           1.000e+20                       1.7913k                  309.1455m
     -89.4000m           1.000e+20                       1.7916k                  309.7618m
     -89.3000m           1.000e+20                       1.7919k                  310.3805m
     -89.2000m           1.000e+20                       1.7922k                  311.0018m
     -89.1000m           1.000e+20                       1.7925k                  311.6259m
     -89.0000m           1.000e+20                       1.7928k                  312.2531m
     -88.9000m           1.000e+20                       1.7931k                  312.8837m
     -88.8000m           1.000e+20                       1.7934k                  313.5179m
     -88.7000m           1.000e+20                       1.7937k                  314.1563m
     -88.6000m           1.000e+20                       1.7940k                  314.7992m
     -88.5000m           1.000e+20                       1.7943k                  315.4471m
     -88.4000m           1.000e+20                       1.7946k                  316.1007m
     -88.3000m           1.000e+20                       1.7949k                  316.7608m
     -88.2000m           1.000e+20                       1.7952k                  317.4281m
     -88.1000m           1.000e+20                       1.7955k                  318.1037m
     -88.0000m           1.000e+20                       1.7958k                  318.7887m
     -87.9000m           1.000e+20                       1.7961k                  319.4847m
     -87.8000m           1.000e+20                       1.7964k                  320.1932m
     -87.7000m           1.000e+20                       1.7967k                  320.9162m
     -87.6000m           1.000e+20                       1.7970k                  321.6562m
     -87.5000m           1.000e+20                       1.7974k                  322.4158m
     -87.4000m           1.000e+20                       1.7977k                  323.1986m
     -87.3000m           1.000e+20                       1.7980k                  324.0085m
     -87.2000m           1.000e+20                       1.7983k                  324.8504m
     -87.1000m           1.000e+20                       1.7986k                  325.7301m
     -87.0000m           1.000e+20                       1.7990k                  326.6545m
     -86.9000m           1.000e+20                       1.7993k                  327.6321m
     -86.8000m           1.000e+20                       1.7996k                  328.6730m
     -86.7000m           1.000e+20                       1.7999k                  329.7893m
     -86.6000m           1.000e+20                       1.8003k                  330.9959m
     -86.5000m           1.000e+20                       1.8006k                  332.3103m
     -86.4000m           1.000e+20                       1.8010k                  333.7539m
     -86.3000m           1.000e+20                       1.8013k                  335.3524m
     -86.2000m           1.000e+20                       1.8017k                  337.1364m
     -86.1000m           1.000e+20                       1.8021k                  339.1428m
     -86.0000m           1.000e+20                       1.8024k                  341.4153m
     -85.9000m           1.000e+20                       1.8028k                  344.0057m
     -85.8000m           1.000e+20                       1.8032k                  346.9748m
     -85.7000m           1.000e+20                       1.8037k                  350.3932m
     -85.6000m           1.000e+20                       1.8041k                  354.3420m
     -85.5000m           1.000e+20                       1.8046k                  358.9126m
     -85.4000m           1.000e+20                       1.8051k                  364.2059m
     -85.3000m           1.000e+20                       1.8056k                  370.3300m
     -85.2000m           1.000e+20                       1.8062k                  377.3965m
     -85.1000m           1.000e+20                       1.8068k                  385.5151m
     -85.0000m           1.000e+20                       1.8074k                  394.7851m
     -84.9000m           1.000e+20                       1.8081k                  405.2864m
     -84.8000m           1.000e+20                       1.8089k                  417.0684m
     -84.7000m           1.000e+20                       1.8097k                  430.1396m
     -84.6000m           1.000e+20                       1.8105k                  444.4593m
     -84.5000m           1.000e+20                       1.8114k                  459.9330m
     -84.4000m           1.000e+20                       1.8124k                  476.4136m
     -84.3000m           1.000e+20                       1.8134k                  493.7090m
     -84.2000m           1.000e+20                       1.8144k                  511.5941m
     -84.1000m           1.000e+20                       1.8154k                  529.8275m
     -84.0000m           1.000e+20                       1.8165k                  548.1683m
     -83.9000m           1.000e+20                       1.8175k                  566.3918m
     -83.8000m           1.000e+20                       1.8186k                  584.3006m
     -83.7000m           1.000e+20                       1.8196k                  601.7319m
     -83.6000m           1.000e+20                       1.8207k                  618.5607m
     -83.5000m           1.000e+20                       1.8217k                  634.6982m
     -83.4000m           1.000e+20                       1.8227k                  650.0885m
     -83.3000m           1.000e+20                       1.8237k                  664.7038m
     -83.2000m           1.000e+20                       1.8247k                  678.5386m
     -83.1000m           1.000e+20                       1.8257k                  691.6051m
     -83.0000m           1.000e+20                       1.8266k                  703.9276m
     -82.9000m           1.000e+20                       1.8276k                  715.5391m
     -82.8000m           1.000e+20                       1.8285k                  726.4780m
     -82.7000m           1.000e+20                       1.8294k                  736.7855m
     -82.6000m           1.000e+20                       1.8303k                  746.5036m
     -82.5000m           1.000e+20                       1.8312k                  755.6742m
     -82.4000m           1.000e+20                       1.8321k                  764.3378m
     -82.3000m           1.000e+20                       1.8329k                  772.5332m
     -82.2000m           1.000e+20                       1.8338k                  780.2968m
     -82.1000m           1.000e+20                       1.8347k                  787.6627m
     -82.0000m           1.000e+20                       1.8355k                  794.6625m
     -81.9000m           1.000e+20                       1.8364k                  801.3254m
     -81.8000m           1.000e+20                       1.8372k                  807.6783m
     -81.7000m           1.000e+20                       1.8380k                  813.7459m
     -81.6000m           1.000e+20                       1.8389k                  819.5506m
     -81.5000m           1.000e+20                       1.8397k                  825.1132m
     -81.4000m           1.000e+20                       1.8405k                  830.4525m
     -81.3000m           1.000e+20                       1.8413k                  835.5857m
     -81.2000m           1.000e+20                       1.8422k                  840.5284m
     -81.1000m           1.000e+20                       1.8430k                  845.2951m
     -81.0000m           1.000e+20                       1.8438k                  849.8989m
     -80.9000m           1.000e+20                       1.8446k                  854.3516m
     -80.8000m           1.000e+20                       1.8454k                  858.6644m
     -80.7000m           1.000e+20                       1.8462k                  862.8471m
     -80.6000m           1.000e+20                       1.8471k                  866.9090m
     -80.5000m           1.000e+20                       1.8479k                  870.8585m
     -80.4000m           1.000e+20                       1.8487k                  874.7033m
     -80.3000m           1.000e+20                       1.8495k                  878.4506m
     -80.2000m           1.000e+20                       1.8503k                  882.1068m
     -80.1000m           1.000e+20                       1.8511k                  885.6779m
     -80.0000m           1.000e+20                       1.8520k                  889.1696m
     -79.9000m           1.000e+20                       1.8528k                  892.5869m
     -79.8000m           1.000e+20                       1.8536k                  895.9344m
     -79.7000m           1.000e+20                       1.8544k                  899.2167m
     -79.6000m           1.000e+20                       1.8552k                  902.4377m
     -79.5000m           1.000e+20                       1.8561k                  905.6012m
     -79.4000m           1.000e+20                       1.8569k                  908.7107m
     -79.3000m           1.000e+20                       1.8577k                  911.7693m
     -79.2000m           1.000e+20                       1.8585k                  914.7801m
     -79.1000m           1.000e+20                       1.8594k                  917.7458m
     -79.0000m           1.000e+20                       1.8602k                  920.6691m
     -78.9000m           1.000e+20                       1.8610k                  923.5524m
     -78.8000m           1.000e+20                       1.8619k                  926.3979m
     -78.7000m           1.000e+20                       1.8627k                  929.2077m
     -78.6000m           1.000e+20                       1.8635k                  931.9839m
     -78.5000m           1.000e+20                       1.8644k                  934.7283m
     -78.4000m           1.000e+20                       1.8652k                  937.4425m
     -78.3000m           1.000e+20                       1.8661k                  940.1283m
     -78.2000m           1.000e+20                       1.8669k                  942.7871m
     -78.1000m           1.000e+20                       1.8678k                  945.4204m
     -78.0000m           1.000e+20                       1.8686k                  948.0295m
     -77.9000m           1.000e+20                       1.8695k                  950.6157m
     -77.8000m           1.000e+20                       1.8703k                  953.1802m
     -77.7000m           1.000e+20                       1.8712k                  955.7240m
     -77.6000m           1.000e+20                       1.8720k                  958.2484m
     -77.5000m           1.000e+20                       1.8729k                  960.7541m
     -77.4000m           1.000e+20                       1.8738k                  963.2423m
     -77.3000m           1.000e+20                       1.8746k                  965.7138m
     -77.2000m           1.000e+20                       1.8755k                  968.1693m
     -77.1000m           1.000e+20                       1.8764k                  970.6098m
     -77.0000m           1.000e+20                       1.8772k                  973.0360m
     -76.9000m           1.000e+20                       1.8781k                  975.4486m
     -76.8000m           1.000e+20                       1.8790k                  977.8483m
     -76.7000m           1.000e+20                       1.8799k                  980.2356m
     -76.6000m           1.000e+20                       1.8808k                  982.6113m
     -76.5000m           1.000e+20                       1.8816k                  984.9760m
     -76.4000m           1.000e+20                       1.8825k                  987.3301m
     -76.3000m           1.000e+20                       1.8834k                  989.6741m
     -76.2000m           1.000e+20                       1.8843k                  992.0087m
     -76.1000m           1.000e+20                       1.8852k                  994.3342m
     -76.0000m           1.000e+20                       1.8861k                  996.6512m
     -75.9000m           1.000e+20                       1.8870k                  998.9600m
     -75.8000m           1.000e+20                       1.8879k                    1.0013 
     -75.7000m           1.000e+20                       1.8888k                    1.0036 
     -75.6000m           1.000e+20                       1.8897k                    1.0058 
     -75.5000m           1.000e+20                       1.8906k                    1.0081 
     -75.4000m           1.000e+20                       1.8915k                    1.0104 
     -75.3000m           1.000e+20                       1.8925k                    1.0127 
     -75.2000m           1.000e+20                       1.8934k                    1.0149 
     -75.1000m           1.000e+20                       1.8943k                    1.0172 
     -75.0000m           1.000e+20                       1.8952k                    1.0194 
     -74.9000m           1.000e+20                       1.8961k                    1.0217 
     -74.8000m           1.000e+20                       1.8971k                    1.0239 
     -74.7000m           1.000e+20                       1.8980k                    1.0262 
     -74.6000m           1.000e+20                       1.8989k                    1.0284 
     -74.5000m           1.000e+20                       1.8999k                    1.0306 
     -74.4000m           1.000e+20                       1.9008k                    1.0329 
     -74.3000m           1.000e+20                       1.9018k                    1.0351 
     -74.2000m           1.000e+20                       1.9027k                    1.0373 
     -74.1000m           1.000e+20                       1.9037k                    1.0395 
     -74.0000m           1.000e+20                       1.9046k                    1.0417 
     -73.9000m           1.000e+20                       1.9056k                    1.0439 
     -73.8000m           1.000e+20                       1.9065k                    1.0462 
     -73.7000m           1.000e+20                       1.9075k                    1.0484 
     -73.6000m           1.000e+20                       1.9084k                    1.0506 
     -73.5000m           1.000e+20                       1.9094k                    1.0528 
     -73.4000m           1.000e+20                       1.9104k                    1.0550 
     -73.3000m           1.000e+20                       1.9113k                    1.0572 
     -73.2000m           1.000e+20                       1.9123k                    1.0594 
     -73.1000m           1.000e+20                       1.9133k                    1.0616 
     -73.0000m           1.000e+20                       1.9143k                    1.0638 
     -72.9000m           1.000e+20                       1.9153k                    1.0660 
     -72.8000m           1.000e+20                       1.9162k                    1.0682 
     -72.7000m           1.000e+20                       1.9172k                    1.0704 
     -72.6000m           1.000e+20                       1.9182k                    1.0726 
     -72.5000m           1.000e+20                       1.9192k                    1.0748 
     -72.4000m           1.000e+20                       1.9202k                    1.0769 
     -72.3000m           1.000e+20                       1.9212k                    1.0791 
     -72.2000m           1.000e+20                       1.9222k                    1.0813 
     -72.1000m           1.000e+20                       1.9232k                    1.0835 
     -72.0000m           1.000e+20                       1.9242k                    1.0857 
     -71.9000m           1.000e+20                       1.9253k                    1.0879 
     -71.8000m           1.000e+20                       1.9263k                    1.0901 
     -71.7000m           1.000e+20                       1.9273k                    1.0923 
     -71.6000m           1.000e+20                       1.9283k                    1.0945 
     -71.5000m           1.000e+20                       1.9293k                    1.0967 
     -71.4000m           1.000e+20                       1.9304k                    1.0989 
     -71.3000m           1.000e+20                       1.9314k                    1.1011 
     -71.2000m           1.000e+20                       1.9324k                    1.1033 
     -71.1000m           1.000e+20                       1.9335k                    1.1055 
     -71.0000m           1.000e+20                       1.9345k                    1.1077 
     -70.9000m           1.000e+20                       1.9356k                    1.1099 
     -70.8000m           1.000e+20                       1.9366k                    1.1121 
     -70.7000m           1.000e+20                       1.9377k                    1.1143 
     -70.6000m           1.000e+20                       1.9387k                    1.1165 
     -70.5000m           1.000e+20                       1.9398k                    1.1187 
     -70.4000m           1.000e+20                       1.9408k                    1.1209 
     -70.3000m           1.000e+20                       1.9419k                    1.1231 
     -70.2000m           1.000e+20                       1.9430k                    1.1253 
     -70.1000m           1.000e+20                       1.9440k                    1.1275 
     -70.0000m           1.000e+20                       1.9451k                    1.1297 
     -69.9000m           1.000e+20                       1.9462k                    1.1319 
     -69.8000m           1.000e+20                       1.9473k                    1.1341 
     -69.7000m           1.000e+20                       1.9483k                    1.1364 
     -69.6000m           1.000e+20                       1.9494k                    1.1386 
     -69.5000m           1.000e+20                       1.9505k                    1.1408 
     -69.4000m           1.000e+20                       1.9516k                    1.1430 
     -69.3000m           1.000e+20                       1.9527k                    1.1452 
     -69.2000m           1.000e+20                       1.9538k                    1.1475 
     -69.1000m           1.000e+20                       1.9549k                    1.1497 
     -69.0000m           1.000e+20                       1.9560k                    1.1519 
     -68.9000m           1.000e+20                       1.9571k                    1.1541 
     -68.8000m           1.000e+20                       1.9583k                    1.1564 
     -68.7000m           1.000e+20                       1.9594k                    1.1586 
     -68.6000m           1.000e+20                       1.9605k                    1.1608 
     -68.5000m           1.000e+20                       1.9616k                    1.1631 
     -68.4000m           1.000e+20                       1.9627k                    1.1653 
     -68.3000m           1.000e+20                       1.9639k                    1.1676 
     -68.2000m           1.000e+20                       1.9650k                    1.1698 
     -68.1000m           1.000e+20                       1.9662k                    1.1721 
     -68.0000m           1.000e+20                       1.9673k                    1.1743 
     -67.9000m           1.000e+20                       1.9684k                    1.1766 
     -67.8000m           1.000e+20                       1.9696k                    1.1788 
     -67.7000m           1.000e+20                       1.9707k                    1.1811 
     -67.6000m           1.000e+20                       1.9719k                    1.1833 
     -67.5000m           1.000e+20                       1.9731k                    1.1856 
     -67.4000m           1.000e+20                       1.9742k                    1.1879 
     -67.3000m           1.000e+20                       1.9754k                    1.1901 
     -67.2000m           1.000e+20                       1.9766k                    1.1924 
     -67.1000m           1.000e+20                       1.9777k                    1.1947 
     -67.0000m           1.000e+20                       1.9789k                    1.1970 
     -66.9000m           1.000e+20                       1.9801k                    1.1992 
     -66.8000m           1.000e+20                       1.9813k                    1.2015 
     -66.7000m           1.000e+20                       1.9825k                    1.2038 
     -66.6000m           1.000e+20                       1.9837k                    1.2061 
     -66.5000m           1.000e+20                       1.9849k                    1.2084 
     -66.4000m           1.000e+20                       1.9861k                    1.2107 
     -66.3000m           1.000e+20                       1.9873k                    1.2130 
     -66.2000m           1.000e+20                       1.9885k                    1.2153 
     -66.1000m           1.000e+20                       1.9897k                    1.2176 
     -66.0000m           1.000e+20                       1.9909k                    1.2199 
     -65.9000m           1.000e+20                       1.9921k                    1.2222 
     -65.8000m           1.000e+20                       1.9934k                    1.2245 
     -65.7000m           1.000e+20                       1.9946k                    1.2268 
     -65.6000m           1.000e+20                       1.9958k                    1.2292 
     -65.5000m           1.000e+20                       1.9971k                    1.2315 
     -65.4000m           1.000e+20                       1.9983k                    1.2338 
     -65.3000m           1.000e+20                       1.9995k                    1.2361 
     -65.2000m           1.000e+20                       2.0008k                    1.2385 
     -65.1000m           1.000e+20                       2.0020k                    1.2408 
     -65.0000m           1.000e+20                       2.0033k                    1.2432 
     -64.9000m           1.000e+20                       2.0046k                    1.2455 
     -64.8000m           1.000e+20                       2.0058k                    1.2478 
     -64.7000m           1.000e+20                       2.0071k                    1.2502 
     -64.6000m           1.000e+20                       2.0084k                    1.2525 
     -64.5000m           1.000e+20                       2.0097k                    1.2549 
     -64.4000m           1.000e+20                       2.0109k                    1.2573 
     -64.3000m           1.000e+20                       2.0122k                    1.2596 
     -64.2000m           1.000e+20                       2.0135k                    1.2620 
     -64.1000m           1.000e+20                       2.0148k                    1.2644 
     -64.0000m           1.000e+20                       2.0161k                    1.2667 
     -63.9000m           1.000e+20                       2.0174k                    1.2691 
     -63.8000m           1.000e+20                       2.0187k                    1.2715 
     -63.7000m           1.000e+20                       2.0200k                    1.2739 
     -63.6000m           1.000e+20                       2.0213k                    1.2763 
     -63.5000m           1.000e+20                       2.0227k                    1.2787 
     -63.4000m           1.000e+20                       2.0240k                    1.2811 
     -63.3000m           1.000e+20                       2.0253k                    1.2835 
     -63.2000m           1.000e+20                       2.0266k                    1.2859 
     -63.1000m           1.000e+20                       2.0280k                    1.2883 
     -63.0000m           1.000e+20                       2.0293k                    1.2907 
     -62.9000m           1.000e+20                       2.0307k                    1.2931 
     -62.8000m           1.000e+20                       2.0320k                    1.2955 
     -62.7000m           1.000e+20                       2.0334k                    1.2980 
     -62.6000m           1.000e+20                       2.0347k                    1.3004 
     -62.5000m           1.000e+20                       2.0361k                    1.3028 
     -62.4000m           1.000e+20                       2.0375k                    1.3053 
     -62.3000m           1.000e+20                       2.0388k                    1.3077 
     -62.2000m           1.000e+20                       2.0402k                    1.3101 
     -62.1000m           1.000e+20                       2.0416k                    1.3126 
     -62.0000m           1.000e+20                       2.0430k                    1.3151 
     -61.9000m           1.000e+20                       2.0444k                    1.3175 
     -61.8000m           1.000e+20                       2.0458k                    1.3200 
     -61.7000m           1.000e+20                       2.0472k                    1.3224 
     -61.6000m           1.000e+20                       2.0486k                    1.3249 
     -61.5000m           1.000e+20                       2.0500k                    1.3274 
     -61.4000m           1.000e+20                       2.0514k                    1.3299 
     -61.3000m           1.000e+20                       2.0528k                    1.3323 
     -61.2000m           1.000e+20                       2.0542k                    1.3348 
     -61.1000m           1.000e+20                       2.0557k                    1.3373 
     -61.0000m           1.000e+20                       2.0571k                    1.3398 
     -60.9000m           1.000e+20                       2.0585k                    1.3423 
     -60.8000m           1.000e+20                       2.0600k                    1.3448 
     -60.7000m           1.000e+20                       2.0614k                    1.3473 
     -60.6000m           1.000e+20                       2.0629k                    1.3498 
     -60.5000m           1.000e+20                       2.0643k                    1.3524 
     -60.4000m           1.000e+20                       2.0658k                    1.3549 
     -60.3000m           1.000e+20                       2.0673k                    1.3574 
     -60.2000m           1.000e+20                       2.0687k                    1.3599 
     -60.1000m           1.000e+20                       2.0702k                    1.3625 
     -60.0000m           1.000e+20                       2.0717k                    1.3650 
     -59.9000m           1.000e+20                       2.0732k                    1.3676 
     -59.8000m           1.000e+20                       2.0747k                    1.3701 
     -59.7000m           1.000e+20                       2.0762k                    1.3727 
     -59.6000m           1.000e+20                       2.0777k                    1.3752 
     -59.5000m           1.000e+20                       2.0792k                    1.3778 
     -59.4000m           1.000e+20                       2.0807k                    1.3804 
     -59.3000m           1.000e+20                       2.0822k                    1.3829 
     -59.2000m           1.000e+20                       2.0837k                    1.3855 
     -59.1000m           1.000e+20                       2.0853k                    1.3881 
     -59.0000m           1.000e+20                       2.0868k                    1.3907 
     -58.9000m           1.000e+20                       2.0883k                    1.3933 
     -58.8000m           1.000e+20                       2.0899k                    1.3959 
     -58.7000m           1.000e+20                       2.0914k                    1.3985 
     -58.6000m           1.000e+20                       2.0930k                    1.4011 
     -58.5000m           1.000e+20                       2.0945k                    1.4037 
     -58.4000m           1.000e+20                       2.0961k                    1.4063 
     -58.3000m           1.000e+20                       2.0977k                    1.4090 
     -58.2000m           1.000e+20                       2.0992k                    1.4116 
     -58.1000m           1.000e+20                       2.1008k                    1.4142 
     -58.0000m           1.000e+20                       2.1024k                    1.4169 
     -57.9000m           1.000e+20                       2.1040k                    1.4195 
     -57.8000m           1.000e+20                       2.1056k                    1.4222 
     -57.7000m           1.000e+20                       2.1072k                    1.4248 
     -57.6000m           1.000e+20                       2.1088k                    1.4275 
     -57.5000m           1.000e+20                       2.1104k                    1.4301 
     -57.4000m           1.000e+20                       2.1120k                    1.4328 
     -57.3000m           1.000e+20                       2.1137k                    1.4355 
     -57.2000m           1.000e+20                       2.1153k                    1.4382 
     -57.1000m           1.000e+20                       2.1169k                    1.4408 
     -57.0000m           1.000e+20                       2.1186k                    1.4435 
     -56.9000m           1.000e+20                       2.1202k                    1.4462 
     -56.8000m           1.000e+20                       2.1219k                    1.4489 
     -56.7000m           1.000e+20                       2.1235k                    1.4516 
     -56.6000m           1.000e+20                       2.1252k                    1.4544 
     -56.5000m           1.000e+20                       2.1269k                    1.4571 
     -56.4000m           1.000e+20                       2.1286k                    1.4598 
     -56.3000m           1.000e+20                       2.1302k                    1.4625 
     -56.2000m           1.000e+20                       2.1319k                    1.4653 
     -56.1000m           1.000e+20                       2.1336k                    1.4680 
     -56.0000m           1.000e+20                       2.1353k                    1.4707 
     -55.9000m           1.000e+20                       2.1370k                    1.4735 
     -55.8000m           1.000e+20                       2.1388k                    1.4763 
     -55.7000m           1.000e+20                       2.1405k                    1.4790 
     -55.6000m           1.000e+20                       2.1422k                    1.4818 
     -55.5000m           1.000e+20                       2.1439k                    1.4846 
     -55.4000m           1.000e+20                       2.1457k                    1.4873 
     -55.3000m           1.000e+20                       2.1474k                    1.4901 
     -55.2000m           1.000e+20                       2.1492k                    1.4929 
     -55.1000m           1.000e+20                       2.1509k                    1.4957 
     -55.0000m           1.000e+20                       2.1527k                    1.4985 
     -54.9000m           1.000e+20                       2.1545k                    1.5013 
     -54.8000m           1.000e+20                       2.1562k                    1.5042 
     -54.7000m           1.000e+20                       2.1580k                    1.5070 
     -54.6000m           1.000e+20                       2.1598k                    1.5098 
     -54.5000m           1.000e+20                       2.1616k                    1.5126 
     -54.4000m           1.000e+20                       2.1634k                    1.5155 
     -54.3000m           1.000e+20                       2.1652k                    1.5183 
     -54.2000m           1.000e+20                       2.1670k                    1.5212 
     -54.1000m           1.000e+20                       2.1688k                    1.5240 
     -54.0000m           1.000e+20                       2.1707k                    1.5269 
     -53.9000m           1.000e+20                       2.1725k                    1.5298 
     -53.8000m           1.000e+20                       2.1744k                    1.5326 
     -53.7000m           1.000e+20                       2.1762k                    1.5355 
     -53.6000m           1.000e+20                       2.1781k                    1.5384 
     -53.5000m           1.000e+20                       2.1799k                    1.5413 
     -53.4000m           1.000e+20                       2.1818k                    1.5442 
     -53.3000m           1.000e+20                       2.1837k                    1.5471 
     -53.2000m           1.000e+20                       2.1855k                    1.5500 
     -53.1000m           1.000e+20                       2.1874k                    1.5530 
     -53.0000m           1.000e+20                       2.1893k                    1.5559 
     -52.9000m           1.000e+20                       2.1912k                    1.5588 
     -52.8000m           1.000e+20                       2.1931k                    1.5618 
     -52.7000m           1.000e+20                       2.1951k                    1.5647 
     -52.6000m           1.000e+20                       2.1970k                    1.5677 
     -52.5000m           1.000e+20                       2.1989k                    1.5706 
     -52.4000m           1.000e+20                       2.2009k                    1.5736 
     -52.3000m           1.000e+20                       2.2028k                    1.5766 
     -52.2000m           1.000e+20                       2.2048k                    1.5796 
     -52.1000m           1.000e+20                       2.2067k                    1.5826 
     -52.0000m           1.000e+20                       2.2087k                    1.5856 
     -51.9000m           1.000e+20                       2.2107k                    1.5886 
     -51.8000m           1.000e+20                       2.2126k                    1.5916 
     -51.7000m           1.000e+20                       2.2146k                    1.5946 
     -51.6000m           1.000e+20                       2.2166k                    1.5976 
     -51.5000m           1.000e+20                       2.2186k                    1.6006 
     -51.4000m           1.000e+20                       2.2206k                    1.6037 
     -51.3000m           1.000e+20                       2.2227k                    1.6067 
     -51.2000m           1.000e+20                       2.2247k                    1.6098 
     -51.1000m           1.000e+20                       2.2267k                    1.6128 
     -51.0000m           1.000e+20                       2.2288k                    1.6159 
     -50.9000m           1.000e+20                       2.2308k                    1.6190 
     -50.8000m           1.000e+20                       2.2329k                    1.6221 
     -50.7000m           1.000e+20                       2.2350k                    1.6251 
     -50.6000m           1.000e+20                       2.2370k                    1.6282 
     -50.5000m           1.000e+20                       2.2391k                    1.6313 
     -50.4000m           1.000e+20                       2.2412k                    1.6345 
     -50.3000m           1.000e+20                       2.2433k                    1.6376 
     -50.2000m           1.000e+20                       2.2454k                    1.6407 
     -50.1000m           1.000e+20                       2.2475k                    1.6438 
     -50.0000m           1.000e+20                       2.2496k                    1.6470 
     -49.9000m           1.000e+20                       2.2518k                    1.6501 
     -49.8000m           1.000e+20                       2.2539k                    1.6533 
     -49.7000m           1.000e+20                       2.2561k                    1.6564 
     -49.6000m           1.000e+20                       2.2582k                    1.6596 
     -49.5000m           1.000e+20                       2.2604k                    1.6628 
     -49.4000m           1.000e+20                       2.2625k                    1.6660 
     -49.3000m           1.000e+20                       2.2647k                    1.6692 
     -49.2000m           1.000e+20                       2.2669k                    1.6724 
     -49.1000m           1.000e+20                       2.2691k                    1.6756 
     -49.0000m           1.000e+20                       2.2713k                    1.6788 
     -48.9000m           1.000e+20                       2.2735k                    1.6820 
     -48.8000m           1.000e+20                       2.2758k                    1.6853 
     -48.7000m           1.000e+20                       2.2780k                    1.6885 
     -48.6000m           1.000e+20                       2.2802k                    1.6918 
     -48.5000m           1.000e+20                       2.2825k                    1.6950 
     -48.4000m           1.000e+20                       2.2847k                    1.6983 
     -48.3000m           1.000e+20                       2.2870k                    1.7016 
     -48.2000m           1.000e+20                       2.2893k                    1.7049 
     -48.1000m           1.000e+20                       2.2916k                    1.7082 
     -48.0000m           1.000e+20                       2.2939k                    1.7115 
     -47.9000m           1.000e+20                       2.2962k                    1.7148 
     -47.8000m           1.000e+20                       2.2985k                    1.7181 
     -47.7000m           1.000e+20                       2.3008k                    1.7214 
     -47.6000m           1.000e+20                       2.3031k                    1.7247 
     -47.5000m           1.000e+20                       2.3055k                    1.7281 
     -47.4000m           1.000e+20                       2.3078k                    1.7314 
     -47.3000m           1.000e+20                       2.3102k                    1.7348 
     -47.2000m           1.000e+20                       2.3126k                    1.7382 
     -47.1000m           1.000e+20                       2.3149k                    1.7416 
     -47.0000m           1.000e+20                       2.3173k                    1.7449 
     -46.9000m           1.000e+20                       2.3197k                    1.7483 
     -46.8000m           1.000e+20                       2.3221k                    1.7518 
     -46.7000m           1.000e+20                       2.3245k                    1.7552 
     -46.6000m           1.000e+20                       2.3270k                    1.7586 
     -46.5000m           1.000e+20                       2.3294k                    1.7620 
     -46.4000m           1.000e+20                       2.3318k                    1.7655 
     -46.3000m           1.000e+20                       2.3343k                    1.7689 
     -46.2000m           1.000e+20                       2.3368k                    1.7724 
     -46.1000m           1.000e+20                       2.3392k                    1.7759 
     -46.0000m           1.000e+20                       2.3417k                    1.7793 
     -45.9000m           1.000e+20                       2.3442k                    1.7828 
     -45.8000m           1.000e+20                       2.3467k                    1.7863 
     -45.7000m           1.000e+20                       2.3493k                    1.7898 
     -45.6000m           1.000e+20                       2.3518k                    1.7934 
     -45.5000m           1.000e+20                       2.3543k                    1.7969 
     -45.4000m           1.000e+20                       2.3569k                    1.8004 
     -45.3000m           1.000e+20                       2.3594k                    1.8040 
     -45.2000m           1.000e+20                       2.3620k                    1.8075 
     -45.1000m           1.000e+20                       2.3646k                    1.8111 
     -45.0000m           1.000e+20                       2.3672k                    1.8147 
     -44.9000m           1.000e+20                       2.3698k                    1.8183 
     -44.8000m           1.000e+20                       2.3724k                    1.8219 
     -44.7000m           1.000e+20                       2.3750k                    1.8255 
     -44.6000m           1.000e+20                       2.3776k                    1.8291 
     -44.5000m           1.000e+20                       2.3803k                    1.8327 
     -44.4000m           1.000e+20                       2.3829k                    1.8364 
     -44.3000m           1.000e+20                       2.3856k                    1.8400 
     -44.2000m           1.000e+20                       2.3883k                    1.8437 
     -44.1000m           1.000e+20                       2.3910k                    1.8474 
     -44.0000m           1.000e+20                       2.3937k                    1.8510 
     -43.9000m           1.000e+20                       2.3964k                    1.8547 
     -43.8000m           1.000e+20                       2.3991k                    1.8584 
     -43.7000m           1.000e+20                       2.4019k                    1.8622 
     -43.6000m           1.000e+20                       2.4046k                    1.8659 
     -43.5000m           1.000e+20                       2.4074k                    1.8696 
     -43.4000m           1.000e+20                       2.4101k                    1.8734 
     -43.3000m           1.000e+20                       2.4129k                    1.8771 
     -43.2000m           1.000e+20                       2.4157k                    1.8809 
     -43.1000m           1.000e+20                       2.4185k                    1.8847 
     -43.0000m           1.000e+20                       2.4213k                    1.8885 
     -42.9000m           1.000e+20                       2.4242k                    1.8923 
     -42.8000m           1.000e+20                       2.4270k                    1.8961 
     -42.7000m           1.000e+20                       2.4299k                    1.8999 
     -42.6000m           1.000e+20                       2.4327k                    1.9037 
     -42.5000m           1.000e+20                       2.4356k                    1.9076 
     -42.4000m           1.000e+20                       2.4385k                    1.9115 
     -42.3000m           1.000e+20                       2.4414k                    1.9153 
     -42.2000m           1.000e+20                       2.4443k                    1.9192 
     -42.1000m           1.000e+20                       2.4473k                    1.9231 
     -42.0000m           1.000e+20                       2.4502k                    1.9270 
     -41.9000m           1.000e+20                       2.4532k                    1.9309 
     -41.8000m           1.000e+20                       2.4561k                    1.9349 
     -41.7000m           1.000e+20                       2.4591k                    1.9388 
     -41.6000m           1.000e+20                       2.4621k                    1.9428 
     -41.5000m           1.000e+20                       2.4651k                    1.9467 
     -41.4000m           1.000e+20                       2.4681k                    1.9507 
     -41.3000m           1.000e+20                       2.4712k                    1.9547 
     -41.2000m           1.000e+20                       2.4742k                    1.9587 
     -41.1000m           1.000e+20                       2.4773k                    1.9628 
     -41.0000m           1.000e+20                       2.4804k                    1.9668 
     -40.9000m           1.000e+20                       2.4835k                    1.9708 
     -40.8000m           1.000e+20                       2.4866k                    1.9749 
     -40.7000m           1.000e+20                       2.4897k                    1.9790 
     -40.6000m           1.000e+20                       2.4928k                    1.9830 
     -40.5000m           1.000e+20                       2.4960k                    1.9871 
     -40.4000m           1.000e+20                       2.4991k                    1.9913 
     -40.3000m           1.000e+20                       2.5023k                    1.9954 
     -40.2000m           1.000e+20                       2.5055k                    1.9995 
     -40.1000m           1.000e+20                       2.5087k                    2.0037 
     -40.0000m           1.000e+20                       2.5119k                    2.0078 
     -39.9000m           1.000e+20                       2.5151k                    2.0120 
     -39.8000m           1.000e+20                       2.5184k                    2.0162 
     -39.7000m           1.000e+20                       2.5216k                    2.0204 
     -39.6000m           1.000e+20                       2.5249k                    2.0246 
     -39.5000m           1.000e+20                       2.5282k                    2.0289 
     -39.4000m           1.000e+20                       2.5315k                    2.0331 
     -39.3000m           1.000e+20                       2.5348k                    2.0374 
     -39.2000m           1.000e+20                       2.5382k                    2.0417 
     -39.1000m           1.000e+20                       2.5415k                    2.0459 
     -39.0000m           1.000e+20                       2.5449k                    2.0502 
     -38.9000m           1.000e+20                       2.5483k                    2.0546 
     -38.8000m           1.000e+20                       2.5517k                    2.0589 
     -38.7000m           1.000e+20                       2.5551k                    2.0633 
     -38.6000m           1.000e+20                       2.5585k                    2.0676 
     -38.5000m           1.000e+20                       2.5620k                    2.0720 
     -38.4000m           1.000e+20                       2.5655k                    2.0764 
     -38.3000m           1.000e+20                       2.5689k                    2.0808 
     -38.2000m           1.000e+20                       2.5724k                    2.0852 
     -38.1000m           1.000e+20                       2.5759k                    2.0897 
     -38.0000m           1.000e+20                       2.5795k                    2.0941 
     -37.9000m           1.000e+20                       2.5830k                    2.0986 
     -37.8000m           1.000e+20                       2.5866k                    2.1031 
     -37.7000m           1.000e+20                       2.5902k                    2.1076 
     -37.6000m           1.000e+20                       2.5938k                    2.1121 
     -37.5000m           1.000e+20                       2.5974k                    2.1166 
     -37.4000m           1.000e+20                       2.6010k                    2.1212 
     -37.3000m           1.000e+20                       2.6047k                    2.1258 
     -37.2000m           1.000e+20                       2.6083k                    2.1304 
     -37.1000m           1.000e+20                       2.6120k                    2.1350 
     -37.0000m           1.000e+20                       2.6157k                    2.1396 
     -36.9000m           1.000e+20                       2.6194k                    2.1442 
     -36.8000m           1.000e+20                       2.6232k                    2.1489 
     -36.7000m           1.000e+20                       2.6269k                    2.1535 
     -36.6000m           1.000e+20                       2.6307k                    2.1582 
     -36.5000m           1.000e+20                       2.6345k                    2.1629 
     -36.4000m           1.000e+20                       2.6383k                    2.1676 
     -36.3000m           1.000e+20                       2.6421k                    2.1724 
     -36.2000m           1.000e+20                       2.6460k                    2.1771 
     -36.1000m           1.000e+20                       2.6499k                    2.1819 
     -36.0000m           1.000e+20                       2.6538k                    2.1867 
     -35.9000m           1.000e+20                       2.6577k                    2.1915 
     -35.8000m           1.000e+20                       2.6616k                    2.1963 
     -35.7000m           1.000e+20                       2.6655k                    2.2012 
     -35.6000m           1.000e+20                       2.6695k                    2.2060 
     -35.5000m           1.000e+20                       2.6735k                    2.2109 
     -35.4000m           1.000e+20                       2.6775k                    2.2158 
     -35.3000m           1.000e+20                       2.6815k                    2.2207 
     -35.2000m           1.000e+20                       2.6856k                    2.2257 
     -35.1000m           1.000e+20                       2.6896k                    2.2306 
     -35.0000m           1.000e+20                       2.6937k                    2.2356 
     -34.9000m           1.000e+20                       2.6978k                    2.2406 
     -34.8000m           1.000e+20                       2.7019k                    2.2456 
     -34.7000m           1.000e+20                       2.7061k                    2.2507 
     -34.6000m           1.000e+20                       2.7103k                    2.2557 
     -34.5000m           1.000e+20                       2.7144k                    2.2608 
     -34.4000m           1.000e+20                       2.7187k                    2.2659 
     -34.3000m           1.000e+20                       2.7229k                    2.2710 
     -34.2000m           1.000e+20                       2.7272k                    2.2761 
     -34.1000m           1.000e+20                       2.7314k                    2.2813 
     -34.0000m           1.000e+20                       2.7357k                    2.2865 
     -33.9000m           1.000e+20                       2.7400k                    2.2917 
     -33.8000m           1.000e+20                       2.7444k                    2.2969 
     -33.7000m           1.000e+20                       2.7488k                    2.3021 
     -33.6000m           1.000e+20                       2.7531k                    2.3074 
     -33.5000m           1.000e+20                       2.7576k                    2.3127 
     -33.4000m           1.000e+20                       2.7620k                    2.3180 
     -33.3000m           1.000e+20                       2.7665k                    2.3233 
     -33.2000m           1.000e+20                       2.7709k                    2.3286 
     -33.1000m           1.000e+20                       2.7754k                    2.3340 
     -33.0000m           1.000e+20                       2.7800k                    2.3394 
     -32.9000m           1.000e+20                       2.7845k                    2.3448 
     -32.8000m           1.000e+20                       2.7891k                    2.3502 
     -32.7000m           1.000e+20                       2.7937k                    2.3557 
     -32.6000m           1.000e+20                       2.7983k                    2.3612 
     -32.5000m           1.000e+20                       2.8030k                    2.3667 
     -32.4000m           1.000e+20                       2.8076k                    2.3722 
     -32.3000m           1.000e+20                       2.8123k                    2.3778 
     -32.2000m           1.000e+20                       2.8171k                    2.3834 
     -32.1000m           1.000e+20                       2.8218k                    2.3890 
     -32.0000m           1.000e+20                       2.8266k                    2.3946 
     -31.9000m           1.000e+20                       2.8314k                    2.4002 
     -31.8000m           1.000e+20                       2.8362k                    2.4059 
     -31.7000m           1.000e+20                       2.8411k                    2.4116 
     -31.6000m           1.000e+20                       2.8460k                    2.4173 
     -31.5000m           1.000e+20                       2.8509k                    2.4231 
     -31.4000m           1.000e+20                       2.8558k                    2.4288 
     -31.3000m           1.000e+20                       2.8608k                    2.4346 
     -31.2000m           1.000e+20                       2.8658k                    2.4405 
     -31.1000m           1.000e+20                       2.8708k                    2.4463 
     -31.0000m           1.000e+20                       2.8758k                    2.4522 
     -30.9000m           1.000e+20                       2.8809k                    2.4581 
     -30.8000m           1.000e+20                       2.8860k                    2.4640 
     -30.7000m           1.000e+20                       2.8911k                    2.4700 
     -30.6000m           1.000e+20                       2.8963k                    2.4760 
     -30.5000m           1.000e+20                       2.9015k                    2.4820 
     -30.4000m           1.000e+20                       2.9067k                    2.4880 
     -30.3000m           1.000e+20                       2.9119k                    2.4941 
     -30.2000m           1.000e+20                       2.9172k                    2.5002 
     -30.1000m           1.000e+20                       2.9225k                    2.5063 
     -30.0000m           1.000e+20                       2.9278k                    2.5124 
     -29.9000m           1.000e+20                       2.9332k                    2.5186 
     -29.8000m           1.000e+20                       2.9386k                    2.5248 
     -29.7000m           1.000e+20                       2.9440k                    2.5311 
     -29.6000m           1.000e+20                       2.9495k                    2.5373 
     -29.5000m           1.000e+20                       2.9550k                    2.5436 
     -29.4000m           1.000e+20                       2.9605k                    2.5500 
     -29.3000m           1.000e+20                       2.9661k                    2.5563 
     -29.2000m           1.000e+20                       2.9716k                    2.5627 
     -29.1000m           1.000e+20                       2.9773k                    2.5691 
     -29.0000m           1.000e+20                       2.9829k                    2.5756 
     -28.9000m           1.000e+20                       2.9886k                    2.5820 
     -28.8000m           1.000e+20                       2.9943k                    2.5885 
     -28.7000m           1.000e+20                       3.0001k                    2.5951 
     -28.6000m           1.000e+20                       3.0058k                    2.6017 
     -28.5000m           1.000e+20                       3.0117k                    2.6083 
     -28.4000m           1.000e+20                       3.0175k                    2.6149 
     -28.3000m           1.000e+20                       3.0234k                    2.6216 
     -28.2000m           1.000e+20                       3.0293k                    2.6283 
     -28.1000m           1.000e+20                       3.0353k                    2.6350 
     -28.0000m           1.000e+20                       3.0413k                    2.6418 
     -27.9000m           1.000e+20                       3.0473k                    2.6486 
     -27.8000m           1.000e+20                       3.0534k                    2.6554 
     -27.7000m           1.000e+20                       3.0595k                    2.6623 
     -27.6000m           1.000e+20                       3.0656k                    2.6692 
     -27.5000m           1.000e+20                       3.0718k                    2.6762 
     -27.4000m           1.000e+20                       3.0780k                    2.6831 
     -27.3000m           1.000e+20                       3.0842k                    2.6902 
     -27.2000m           1.000e+20                       3.0905k                    2.6972 
     -27.1000m           1.000e+20                       3.0969k                    2.7043 
     -27.0000m           1.000e+20                       3.1032k                    2.7114 
     -26.9000m           1.000e+20                       3.1096k                    2.7186 
     -26.8000m           1.000e+20                       3.1161k                    2.7258 
     -26.7000m           1.000e+20                       3.1226k                    2.7330 
     -26.6000m           1.000e+20                       3.1291k                    2.7403 
     -26.5000m           1.000e+20                       3.1357k                    2.7476 
     -26.4000m           1.000e+20                       3.1423k                    2.7550 
     -26.3000m           1.000e+20                       3.1489k                    2.7624 
     -26.2000m           1.000e+20                       3.1556k                    2.7698 
     -26.1000m           1.000e+20                       3.1624k                    2.7773 
     -26.0000m           1.000e+20                       3.1691k                    2.7848 
     -25.9000m           1.000e+20                       3.1760k                    2.7923 
     -25.8000m           1.000e+20                       3.1828k                    2.7999 
     -25.7000m           1.000e+20                       3.1897k                    2.8076 
     -25.6000m           1.000e+20                       3.1967k                    2.8152 
     -25.5000m           1.000e+20                       3.2037k                    2.8229 
     -25.4000m           1.000e+20                       3.2107k                    2.8307 
     -25.3000m           1.000e+20                       3.2178k                    2.8385 
     -25.2000m           1.000e+20                       3.2249k                    2.8464 
     -25.1000m           1.000e+20                       3.2321k                    2.8543 
     -25.0000m           1.000e+20                       3.2393k                    2.8622 
     -24.9000m           1.000e+20                       3.2466k                    2.8702 
     -24.8000m           1.000e+20                       3.2539k                    2.8782 
     -24.7000m           1.000e+20                       3.2613k                    2.8863 
     -24.6000m           1.000e+20                       3.2687k                    2.8944 
     -24.5000m           1.000e+20                       3.2762k                    2.9026 
     -24.4000m           1.000e+20                       3.2837k                    2.9108 
     -24.3000m           1.000e+20                       3.2913k                    2.9191 
     -24.2000m           1.000e+20                       3.2989k                    2.9274 
     -24.1000m           1.000e+20                       3.3066k                    2.9357 
     -24.0000m           1.000e+20                       3.3143k                    2.9441 
     -23.9000m           1.000e+20                       3.3221k                    2.9526 
     -23.8000m           1.000e+20                       3.3299k                    2.9611 
     -23.7000m           1.000e+20                       3.3378k                    2.9697 
     -23.6000m           1.000e+20                       3.3457k                    2.9783 
     -23.5000m           1.000e+20                       3.3537k                    2.9869 
     -23.4000m           1.000e+20                       3.3618k                    2.9956 
     -23.3000m           1.000e+20                       3.3699k                    3.0044 
     -23.2000m           1.000e+20                       3.3780k                    3.0132 
     -23.1000m           1.000e+20                       3.3862k                    3.0221 
     -23.0000m           1.000e+20                       3.3945k                    3.0310 
     -22.9000m           1.000e+20                       3.4028k                    3.0400 
     -22.8000m           1.000e+20                       3.4112k                    3.0491 
     -22.7000m           1.000e+20                       3.4197k                    3.0581 
     -22.6000m           1.000e+20                       3.4282k                    3.0673 
     -22.5000m           1.000e+20                       3.4368k                    3.0765 
     -22.4000m           1.000e+20                       3.4454k                    3.0858 
     -22.3000m           1.000e+20                       3.4541k                    3.0951 
     -22.2000m           1.000e+20                       3.4628k                    3.1045 
     -22.1000m           1.000e+20                       3.4716k                    3.1139 
     -22.0000m           1.000e+20                       3.4805k                    3.1234 
     -21.9000m           1.000e+20                       3.4895k                    3.1330 
     -21.8000m           1.000e+20                       3.4985k                    3.1426 
     -21.7000m           1.000e+20                       3.5076k                    3.1523 
     -21.6000m           1.000e+20                       3.5167k                    3.1621 
     -21.5000m           1.000e+20                       3.5259k                    3.1719 
     -21.4000m           1.000e+20                       3.5352k                    3.1818 
     -21.3000m           1.000e+20                       3.5445k                    3.1918 
     -21.2000m           1.000e+20                       3.5539k                    3.2018 
     -21.1000m           1.000e+20                       3.5634k                    3.2119 
     -21.0000m           1.000e+20                       3.5730k                    3.2220 
     -20.9000m           1.000e+20                       3.5826k                    3.2322 
     -20.8000m           1.000e+20                       3.5923k                    3.2425 
     -20.7000m           1.000e+20                       3.6021k                    3.2529 
     -20.6000m           1.000e+20                       3.6120k                    3.2633 
     -20.5000m           1.000e+20                       3.6219k                    3.2738 
     -20.4000m           1.000e+20                       3.6319k                    3.2844 
     -20.3000m           1.000e+20                       3.6420k                    3.2950 
     -20.2000m           1.000e+20                       3.6522k                    3.3058 
     -20.1000m           1.000e+20                       3.6624k                    3.3166 
     -20.0000m           1.000e+20                       3.6727k                    3.3275 
     -19.9000m           1.000e+20                       3.6831k                    3.3384 
     -19.8000m           1.000e+20                       3.6936k                    3.3494 
     -19.7000m           1.000e+20                       3.7042k                    3.3606 
     -19.6000m           1.000e+20                       3.7148k                    3.3718 
     -19.5000m           1.000e+20                       3.7256k                    3.3830 
     -19.4000m           1.000e+20                       3.7364k                    3.3944 
     -19.3000m           1.000e+20                       3.7473k                    3.4058 
     -19.2000m           1.000e+20                       3.7583k                    3.4174 
     -19.1000m           1.000e+20                       3.7694k                    3.4290 
     -19.0000m           1.000e+20                       3.7806k                    3.4407 
     -18.9000m           1.000e+20                       3.7919k                    3.4525 
     -18.8000m           1.000e+20                       3.8032k                    3.4643 
     -18.7000m           1.000e+20                       3.8147k                    3.4763 
     -18.6000m           1.000e+20                       3.8263k                    3.4884 
     -18.5000m           1.000e+20                       3.8379k                    3.5005 
     -18.4000m           1.000e+20                       3.8497k                    3.5128 
     -18.3000m           1.000e+20                       3.8616k                    3.5251 
     -18.2000m           1.000e+20                       3.8735k                    3.5376 
     -18.1000m           1.000e+20                       3.8856k                    3.5501 
     -18.0000m           1.000e+20                       3.8977k                    3.5627 
     -17.9000m           1.000e+20                       3.9100k                    3.5755 
     -17.8000m           1.000e+20                       3.9224k                    3.5883 
     -17.7000m           1.000e+20                       3.9349k                    3.6013 
     -17.6000m           1.000e+20                       3.9475k                    3.6143 
     -17.5000m           1.000e+20                       3.9602k                    3.6275 
     -17.4000m           1.000e+20                       3.9730k                    3.6408 
     -17.3000m           1.000e+20                       3.9860k                    3.6541 
     -17.2000m           1.000e+20                       3.9991k                    3.6676 
     -17.1000m           1.000e+20                       4.0122k                    3.6812 
     -17.0000m           1.000e+20                       4.0255k                    3.6950 
     -16.9000m           1.000e+20                       4.0390k                    3.7088 
     -16.8000m           1.000e+20                       4.0525k                    3.7228 
     -16.7000m           1.000e+20                       4.0662k                    3.7368 
     -16.6000m           1.000e+20                       4.0800k                    3.7510 
     -16.5000m           1.000e+20                       4.0940k                    3.7654 
     -16.4000m           1.000e+20                       4.1081k                    3.7798 
     -16.3000m           1.000e+20                       4.1223k                    3.7944 
     -16.2000m           1.000e+20                       4.1366k                    3.8091 
     -16.1000m           1.000e+20                       4.1511k                    3.8240 
     -16.0000m           1.000e+20                       4.1658k                    3.8390 
     -15.9000m           1.000e+20                       4.1805k                    3.8541 
     -15.8000m           1.000e+20                       4.1955k                    3.8694 
     -15.7000m           1.000e+20                       4.2106k                    3.8848 
[...]
      98.9000m           1.000e+20                       1.7671k                  256.8029m
      99.0000m           1.000e+20                       1.7668k                  256.2940m
      99.1000m           1.000e+20                       1.7666k                  255.7861m
      99.2000m           1.000e+20                       1.7664k                  255.2791m
      99.3000m           1.000e+20                       1.7662k                  254.7731m
      99.4000m           1.000e+20                       1.7659k                  254.2680m
      99.5000m           1.000e+20                       1.7657k                  253.7638m
      99.6000m           1.000e+20                       1.7655k                  253.2605m
      99.7000m           1.000e+20                       1.7653k                  252.7582m
      99.8000m           1.000e+20                       1.7650k                  252.2568m
      99.9000m           1.000e+20                       1.7648k                  251.7563m
     100.0000m           1.000e+20                       1.7646k                  251.2567m
  
1****** HSPICE -- F-2011.09 64-BIT (Sep  5 2011) linux ******                   
 ******  
 * eesm5120 amplifier design

  ******  operating point information tnom=  25.000 temp=  25.000 *****
 ***** operating point status is all       simulation time is     0.     
    node    =voltage      node    =voltage      node    =voltage

 +0:100     =   0.      0:101     =   0.      0:102     =   0.     
 +0:vdd     =   1.0000  0:vin+    =   0.      0:vin-    =   0.     
 +0:vo+     =-197.0693u 0:vo-     =-197.0694u 0:vss     =  -1.0000 
 +1:1       = 325.7934m 1:2       = 602.5215m 1:3       = 450.8562m
 +1:4       = 854.8062m 1:5       = 854.8062m 1:6       =-444.1419m
 +1:7       = 273.1659m 1:8       =-868.1735m 1:9       =-868.1735m
 +1:10      =-400.0487m 1:11      = 955.2385m 1:12      = 196.2506m
 +1:13      = 196.2506m 1:14      =-219.0443m 1:15      =-219.0443m
 +2:1       = 287.0453m 3:1       = 287.0453m 4:2       =-302.1979m
 +5:2       =-302.1979m


 **** voltage sources

 subckt                                                         
 element  0:vdd      0:vss      0:vcm      0:vs       0:voff    
  volts      1.0000    -1.0000     1.0000     0.         0.     
  current -466.0004u  466.0004u    0.         0.         0.     
  power    466.0004u  466.0004u    0.         0.         0.     

     total voltage source power dissipation=  932.0008u       watts



 **** current sources

 subckt   x1        
 element  1:ib      
  volts      1.3258 
  current   10.0000u
  power    -13.2579u


     total current source power dissipation= -13.2579u       watts

 **** voltage-controlled voltage sources


 subckt                        
 element  0:e+       0:e-      
  volts      0.         0.     
  current    0.         0.     





 **** mosfets


 subckt   x1         x1         x1         x1         x1         x1        
 element  1:m01      1:m02      1:m03      1:m04      1:m05      1:m06     
 model    0:cmosp    0:cmosp    0:cmosp    0:cmosp    0:cmosp    0:cmosp   
 region     Saturati   Saturati   Saturati   Saturati   Saturati   Saturati
  id       -92.7967u  -92.7967u  -78.4522u  -78.4522u  -70.3268u  -70.3268u
  ibs        0.         0.         0.         0.         0.         0.     
  ibd        0.         0.         0.         0.         0.         0.     
  vgs     -602.5215m -602.5215m -549.1438m -549.1438m -658.5556m -658.5556m
  vds       -1.4707    -1.4707  -145.1938m -145.1938m -855.0033m -855.0033m
  vbs      397.4785m  397.4785m    0.         0.       145.1938m  145.1938m
  vth     -597.1322m -597.1322m -444.3206m -444.3206m -487.5106m -487.5106m
  vdsat    -64.7265m  -64.7265m -107.8058m -107.8058m -157.1349m -157.1349m
  vod       -5.3893m   -5.3893m -104.8232m -104.8232m -171.0450m -171.0450m
  beta      68.1300m   68.1300m   15.0761m   15.0761m    4.8904m    4.8904m
  gam eff  522.2123m  522.2123m  530.6820m  530.6820m  527.1898m  527.1898m
  gm         1.9236m    1.9236m    1.1441m    1.1441m  742.5489u  742.5489u
  gds       16.3361u   16.3361u   75.2224u   75.2224u    6.8200u    6.8200u
  gmb      505.8995u  505.8995u  348.2905u  348.2905u  215.0841u  215.0841u
  cdtot    185.6289f  185.6289f  119.6948f  119.6948f   36.1694f   36.1694f
  cgtot    264.4239f  264.4239f  232.6299f  232.6299f   79.2509f   79.2509f
  cstot    242.8691f  242.8691f  187.5246f  187.5246f   62.6476f   62.6476f
  cbtot    231.6141f  231.6141f  179.1556f  179.1556f   54.4342f   54.4342f
  cgs      153.4817f  153.4817f  172.6232f  172.6232f   60.2618f   60.2618f
  cgd       97.0029f   97.0029f   51.8481f   51.8481f   16.8293f   16.8293f



 subckt   x1         x1         x1         x1         x1         x1        
 element  1:m07      1:m08      1:m09      1:m10      1:m11      1:m12     
 model    0:cmosn    0:cmosn    0:cmosn    0:cmosn    0:cmosp    0:cmosn   
 region     Saturati   Saturati   Saturati   Saturati   Saturati   Saturati
  id        70.3268u   70.3268u  170.4662u  170.4662u  -10.0000u    9.6290u
  ibs        0.         0.         0.         0.         0.         0.     
  ibd        0.         0.         0.         0.         0.         0.     
  vgs      649.1292m  649.1292m  599.9513m  599.9513m -674.2066m  599.9513m
  vds      867.9764m  867.9764m  131.8265m  131.8265m -674.2066m  599.9513m
  vbs     -131.8265m -131.8265m    0.         0.         0.         0.     
  vth      509.6504m  509.6504m  477.9163m  477.9163m -442.6878m  462.6186m
  vdsat    116.1346m  116.1346m  103.3762m  103.3762m -192.2525m  111.7534m
  vod      139.4788m  139.4788m  122.0350m  122.0350m -231.5188m  137.3327m
  beta       7.3583m    7.3583m   27.8791m   27.8791m  421.8595u    1.1023m
  gam eff  574.9858m  574.9858m  576.4327m  576.4327m  527.0619m  566.2301m
  gm       890.2764u  890.2764u    2.2780m    2.2780m   80.6199u  125.7384u
  gds        9.0321u    9.0321u  306.3690u  306.3690u    1.0309u    1.5960u
  gmb      222.1771u  222.1771u  602.1480u  602.1480u   24.4742u   33.3079u
  cdtot     14.4483f   14.4620f   55.7068f   55.7068f    4.9862f    3.8698f
  cgtot     32.0316f   32.0316f  122.7784f  122.7784f    6.8158f    4.8292f
  cstot     23.1406f   23.1406f   88.6000f   88.6000f    5.7231f    3.7320f
  cbtot     20.0335f   20.0471f   77.6823f   77.6823f    6.9540f    4.9933f
  cgs       23.8311f   23.8311f   89.7272f   89.7272f    5.1880f    3.5947f
  cgd        6.7784f    6.7784f   27.3267f   27.3267f    1.4340f    1.0179f



 subckt   x1         x1         x1         x1         x1         x1        
 element  1:m13      1:m14      1:m15      1:m16      1:m17      1:m18     
 model    0:cmosp    0:cmosp    0:cmosn    0:cmosp    0:cmosp    0:cmosn   
 region       Linear     Linear   Saturati   Saturati   Saturati   Saturati
  id       -92.7967u  -92.7967u    9.5804u   -9.5804u -185.5934u    9.6726u
  ibs        0.         0.         0.         0.         0.         0.     
  ibd        0.         0.         0.         0.         0.         0.     
  vgs       -1.0002    -1.0002   599.9513m -549.1438m -629.4451m  599.9513m
  vds      -44.7615m  -44.7615m    1.4509  -549.1438m -352.7170m    1.2732 
  vbs        0.         0.         0.         0.        44.7615m    0.     
  vth     -444.3847m -444.3847m  455.5442m -443.6667m -458.0259m  457.1766m
  vdsat   -426.2738m -426.2738m  115.7582m -107.0837m -155.2133m  114.8298m
  vod     -555.8123m -555.8123m  144.4071m -105.4771m -171.4193m  142.7747m
  beta       4.1535m    4.1535m  955.3709u    1.6702m   13.8667m  992.0876u
  gam eff  530.4390m  530.4390m  564.6025m  529.8218m  529.6418m  565.0544m
  gm       153.7958u  153.7958u  119.4438u  142.5664u    1.9767m  121.8943u
  gds        1.9588m    1.9588m    1.1026u    1.3528u   36.7087u    1.1496u
  gmb       61.4461u   61.4461u   31.5864u   43.0157u  594.9889u   32.2437u
  cdtot     59.9847f   59.9847f    3.3953f   13.9205f  105.9866f    3.4928f
  cgtot     80.3082f   80.3082f    4.1930f   25.6094f  221.7170f    4.3522f
  cstot     47.6489f   47.6489f    3.2699f   20.9337f  177.7666f    3.3855f
  cbtot     59.6213f   59.6213f    4.3978f   20.8687f  160.7389f    4.5255f
  cgs       44.0903f   44.0903f    3.1279f   19.1001f  168.1994f    3.2450f
  cgd       36.5797f   36.5797f  881.9474a    5.5307f   47.2130f  915.8111a



 subckt   x1         x1         x1         x1         x1.x1      x1.x1     
 element  1:m19      1:m20      1:m21      1:m22      2:m1       2:m2      
 model    0:cmosp    0:cmosp    0:cmosp    0:cmosn    0:cmosp    0:cmosp   
 region     Saturati   Saturati   Saturati   Saturati   Saturati   Saturati
  id        -9.6726u   -9.6290u  -10.0062u   10.0062u   -8.1254u  -15.2264u
  ibs        0.         0.         0.         0.         0.         0.     
  ibd        0.         0.         0.         0.         0.         0.     
  vgs     -726.8341m -674.2066m -674.2066m  555.8581m -567.7609m -712.9547m
  vds     -726.8341m   -1.4000    -1.4441   555.8581m -567.7609m -803.7494m
  vbs        0.         0.         0.         0.       145.1938m    0.     
  vth     -441.9742m -441.3704m -441.3584m  470.2962m -487.7410m -442.8348m
  vdsat   -228.5077m -192.8701m -192.9942m   83.8615m  -94.6800m -220.9467m
  vod     -284.8599m -232.8362m -232.8482m   85.5619m  -80.0199m -270.1198m
  beta     275.4333u  383.1061u  396.8317u    2.4921m    2.0211m  470.5647u
  gam eff  525.1306m  526.6825m  526.8249m  572.1572m  526.8556m  528.1412m
  gm        62.5934u   76.4294u   79.3469u  169.9621u  134.9805u  103.9678u
  gds      915.8015n  685.4079n  703.8893n    1.9787u    1.2265u    1.3016u
  gmb       19.1105u   23.0968u   23.9817u   45.2435u   38.7121u   31.8904u
  cdtot      3.9137f    4.2764f    4.3482f    6.3610f   14.5370f    3.5266f
  cgtot      4.4955f    6.1858f    6.4075f   10.6399f   30.8502f    7.6727f
  cstot      3.8549f    5.2142f    5.3927f    7.9556f   24.5814f    6.3680f
  cbtot      5.2880f    6.0859f    6.2140f    8.6377f   22.0440f    5.6579f
  cgs        3.4290f    4.7054f    4.8738f    7.7283f   22.7550f    5.8465f
  cgd      943.8678a    1.3002f    1.3470f    2.3057f    6.8177f    1.6150f



 subckt   x1.x1      x1.x1      x1.x2      x1.x2      x1.x2      x1.x2     
 element  2:m3       2:m4       3:m1       3:m2       3:m3       3:m4      
 model    0:cmosn    0:cmosn    0:cmosp    0:cmosp    0:cmosn    0:cmosn   
 region     Saturati   Saturati   Saturati   Saturati   Saturati   Saturati
  id         8.1254u   15.2264u   -8.1254u  -15.2264u    8.1254u   15.2264u
  ibs        0.         0.         0.         0.         0.         0.     
  ibd        0.         0.         0.         0.         0.         0.     
  vgs      555.8581m  555.8581m -567.7609m -712.9547m  555.8581m  555.8581m
  vds        1.2870     1.1963  -567.7609m -803.7494m    1.2870     1.1963 
  vbs        0.         0.       145.1938m    0.         0.         0.     
  vth      465.4883m  469.3901m -487.7410m -442.8348m  465.4883m  469.3901m
  vdsat     86.3069m   84.3507m  -94.6800m -220.9467m   86.3069m   84.3507m
  vod       90.3698m   86.4680m  -80.0199m -270.1198m   90.3698m   86.4680m
  beta       1.7736m    3.5607m    2.0211m  470.5647u    1.7736m    3.5607m
  gam eff  571.5761m  574.2230m  526.8556m  528.1412m  571.5761m  574.2230m
  gm       133.5304u  255.0410u  134.9805u  103.9678u  133.5304u  255.0410u
  gds        1.1949u    2.2783u    1.2265u    1.3016u    1.1949u    2.2783u
  gmb       35.4806u   67.6324u   38.7121u   31.8904u   35.4806u   67.6324u
  cdtot      3.1493f    6.1978f   14.5370f    3.5266f    3.1493f    6.1978f
  cgtot      7.6043f   15.2054f   30.8502f    7.6727f    7.6043f   15.2054f
  cstot      5.7040f   11.2273f   24.5814f    6.3680f    5.7040f   11.2273f
  cbtot      4.7890f    9.3140f   22.0440f    5.6579f    4.7890f    9.3140f
  cgs        5.5435f   11.0405f   22.7550f    5.8465f    5.5435f   11.0405f
  cgd        1.6405f    3.2930f    6.8177f    1.6150f    1.6405f    3.2930f



 subckt   x1.x3      x1.x3      x1.x3      x1.x3      x1.x4      x1.x4     
 element  4:m1       4:m2       4:m3       4:m4       5:m1       5:m2      
 model    0:cmosp    0:cmosp    0:cmosn    0:cmosn    0:cmosp    0:cmosp   
 region     Saturati   Saturati   Saturati   Saturati   Saturati   Saturati
  id       -14.7381u   -7.3427u   14.7381u    7.3427u  -14.7381u   -7.3427u
  ibs        0.         0.         0.         0.         0.         0.     
  ibd        0.         0.         0.         0.         0.         0.     
  vgs     -726.8341m -726.8341m  697.8021m  565.9756m -726.8341m -726.8341m
  vds       -1.2190    -1.3022   780.9557m  565.9756m   -1.2190    -1.3022 
  vbs        0.         0.         0.      -131.8265m    0.         0.     
  vth     -442.0671m -440.6555m  454.3782m  509.3692m -442.0671m -440.6555m
  vdsat   -230.7734m -229.0552m  169.6091m   72.4521m -230.7734m -229.0552m
  vod     -284.7671m -286.1786m  243.4239m   56.6064m -284.7671m -286.1786m
  beta     402.3824u  200.1834u  576.1729u    2.9289m  402.3824u  200.1834u
  gam eff  527.6999m  524.5545m  560.5411m  573.2522m  527.6999m  524.5545m
  gm        94.6463u   47.0435u  112.5026u  140.7374u   94.6463u   47.0435u
  gds      965.1292n  488.4704n    1.5779u    1.5648u  965.1292n  488.4704n
  gmb       28.9970u   14.3056u   29.3182u   35.7178u   28.9970u   14.3056u
  cdtot      2.9117f    1.5044f    1.1609f    5.2864f    2.9117f    1.5044f
  cgtot      6.5779f    3.2639f    2.5358f   11.9546f    6.5779f    3.2639f
  cstot      5.4849f    2.8159f    2.0220f    8.7487f    5.4849f    2.8159f
  cbtot      4.7650f    2.5208f    1.7996f    7.6007f    4.7650f    2.5208f
  cgs        5.0127f    2.4886f    1.9110f    8.4589f    5.0127f    2.4886f
  cgd        1.3834f  684.5940a  529.7815a    2.7006f    1.3834f  684.5940a



 subckt   x1.x4      x1.x4     
 element  5:m3       5:m4      
 model    0:cmosn    0:cmosn   
 region     Saturati   Saturati
  id        14.7381u    7.3427u
  ibs        0.         0.     
  ibd        0.         0.     
  vgs      697.8021m  565.9756m
  vds      780.9557m  565.9756m
  vbs        0.      -131.8265m
  vth      454.3782m  509.3692m
  vdsat    169.6091m   72.4521m
  vod      243.4239m   56.6064m
  beta     576.1729u    2.9289m
  gam eff  560.5411m  573.2522m
  gm       112.5026u  140.7374u
  gds        1.5779u    1.5648u
  gmb       29.3182u   35.7178u
  cdtot      1.1609f    5.2864f
  cgtot      2.5358f   11.9546f
  cstot      2.0220f    8.7487f
  cbtot      1.7996f    7.6007f
  cgs        1.9110f    8.4589f
  cgd      529.7815a    2.7006f







 ****     small-signal transfer characteristics

      v(vo+,vo-)/vs                            =   25.1022k
      input resistance at             vs       =  1.000e+20
      output resistance at v(vo+,vo-)          =   26.2666x



 ***************************************************
   ******   pole/zero analysis  
  
  
    input =  0:vs          output = v(vo+,vo-)
  
       poles (rad/sec)                 poles ( hertz)
 real            imag            real            imag            
 -65.7653k       0.              -10.4669k       0.              
 -52.9320x       0.              -8.42440x       0.              
 -245.953x       0.              -39.1446x       0.              
 -531.129x       253.635x        -84.5317x       40.3673x        
 -531.129x       -253.635x       -84.5317x       -40.3673x       
 -967.872x       -1.89675g       -154.042x       -301.878x       
 -967.872x       1.89675g        -154.042x       301.878x        
 -1.31783g       3.25646g        -209.740x       518.281x        
 -1.31783g       -3.25646g       -209.740x       -518.281x       
 -1.37479g       0.              -218.805x       0.              
 -1.53257g       1.09202g        -243.917x       173.800x        
 -1.53257g       -1.09202g       -243.917x       -173.800x       
 -2.67938g       -2.62184g       -426.436x       -417.278x       
 -2.67938g       2.62184g        -426.436x       417.278x        
 -3.47045g       0.              -552.340x       0.              
 -5.56703g       0.              -886.020x       0.              
 -6.62653g       0.              -1.05465g       0.              
 -9.12681g       0.              -1.45258g       0.              
 -11.9350g       0.              -1.89952g       0.              
 -12.6331g       0.              -2.01062g       0.              
 -22.7274g       0.              -3.61718g       0.              
  
       zeros (rad/sec)                 zeros ( hertz)
 real            imag            real            imag            
 -52.9324x       0.              -8.42445x       0.              
 -245.953x       0.              -39.1446x       0.              
 -531.128x       253.636x        -84.5317x       40.3675x        
 -531.128x       -253.636x       -84.5317x       -40.3675x       
 -925.900x       -1.90508g       -147.362x       -303.203x       
 -925.900x       1.90508g        -147.362x       303.203x        
 -1.37479g       0.              -218.805x       0.              
 -1.53258g       1.09202g        -243.917x       173.800x        
 -1.53258g       -1.09202g       -243.917x       -173.800x       
 -2.67938g       2.62184g        -426.437x       417.278x        
 -2.67938g       -2.62184g       -426.437x       -417.278x       
 -3.47045g       0.              -552.340x       0.              
 -5.53425g       0.              -880.803x       0.              
 -5.96304g       6.23663g        -949.047x       992.590x        
 -5.96304g       -6.23663g       -949.047x       -992.590x       
 -6.62653g       0.              -1.05465g       0.              
 -9.12681g       0.              -1.45258g       0.              
 -12.6331g       0.              -2.01062g       0.              
 16.0565g        0.              2.55547g        0.              
 -22.7274g       0.              -3.61718g       0.              
  
  ***** constant factor = -51.6979x

          ***** job concluded
1****** HSPICE -- F-2011.09 64-BIT (Sep  5 2011) linux ******                   
 ******  
 * eesm5120 amplifier design

  ******  job statistics summary tnom=  25.000 temp=  25.000 *****
  
  
 ******  Machine Information  ******
 CPU:
 model name	: Intel(R) Xeon(R) CPU E5-2690 0 @ 2.90GHz
 cpu MHz	: 1200.000
  
 OS:
 Linux version 2.6.32-754.28.1.el6.x86_64 (mockbuild@x86-02.bsys.centos.org) (gc
 c version 4.4.7 20120313 (Red Hat 4.4.7-23) (GCC) ) #1 SMP Wed Mar 11 18:38:45 
 UTC 2020


  ******  HSPICE Threads Information  ******

  Command Line Threads Count :     1
  Available CPU Count        :    32
  Actual Threads Count       :     1


  ******  Circuit Statistics  ******
  # nodes       =      29 # elements   =      48
  # resistors   =       0 # capacitors =       2 # inductors   =       0
  # mutual_inds =       0 # vccs       =       0 # vcvs        =       2
  # cccs        =       0 # ccvs       =       0 # volt_srcs   =       5
  # curr_srcs   =       1 # diodes     =       0 # bjts        =       0
  # jfets       =       0 # mosfets    =      38 # U elements  =       0
  # T elements  =       0 # W elements =       0 # B elements  =       0
  # S elements  =       0 # P elements =       0 # va device   =       0
  # vector_srcs =       0


  ******  Runtime Statistics (seconds)  ******

  analysis           time    # points   tot. iter  conv.iter
  op point           0.00           1          37
  dc sweep           0.35        2001        4271
  ac analysis        0.01         871         871
  readin             0.01
  errchk             0.00
  setup              0.00
  output             0.00


           peak memory used        129.48 megabytes
           total cpu time            0.37 seconds
           total elapsed time        0.42 seconds
           job started at     20:09:46 04/06/2021
           job ended   at     20:09:46 04/06/2021


 lic: Release hspice token(s) 
