Using: /usr/bin/time -p /usr/eelocal/synopsys/hspice-vf2011.09/hspice/amd64/hspice opamp_noise.sp
 ****** HSPICE -- F-2011.09 64-BIT (Sep  5 2011) linux ******                   
  Copyright (C) 2011 Synopsys, Inc. All Rights Reserved.                        
  Unpublished-rights reserved under US copyright laws.
  This program is protected by law and is subject to the
  terms and conditions of the license agreement from Synopsys.
  Use of this program is your acceptance to be bound by the
  license agreement. HSPICE is the trademark of Synopsys, Inc.
  Input File: opamp_noise.sp                                                    
  Command line options: opamp_noise.sp
 lic:  
 lic: FLEXlm: v10.8 
 lic: USER:   kslamaf              HOSTNAME: EEX052 
 lic: HOSTID:                      PID:      15247 
 lic: Using FLEXlm license file: 
 lic: 27041@eesvr5.ece.ust.hk 
 lic: Checkout 1 hspice 
 lic: License/Maintenance for hspice will expire on 20-may-2021/2020.12 
 lic: 1(in_use)/25(total) FLOATING license(s) on SERVER eesvr5.ece.ust.hk 
 lic:   
 Init: read install configuration file: /usr/eelocal/synopsys/hspice-vf2011.09/hspice/meta.cfg
1****** HSPICE -- F-2011.09 64-BIT (Sep  5 2011) linux ******                   
 ******  
 * eesm5120 amplifier design

  ******  circuit name directory
 circuit number to circuit name directory
   number circuitname                     definition         multiplier
        0 main circuit
        1 x1.                             folded_cascode_amp
                                                                 1.00 
        2 x1.x1.                          aux_p              1.00 
        3 x1.x2.                          aux_p              1.00 
        4 x1.x3.                          aux_n              1.00 
        5 x1.x4.                          aux_n              1.00 
 

  
      
 **info** set option symb=1 internally to help for convergence.
 *****************************************************************
 ******  option summary
 ******
 runlvl  = 3         bypass  = 2         
  Opening plot unit= 15
 file=opamp_noise.pa0                                                          

1****** HSPICE -- F-2011.09 64-BIT (Sep  5 2011) linux ******                   
 ******  
 * eesm5120 amplifier design

  ******  operating point information tnom=  25.000 temp=  25.000 *****
 ***** operating point status is all       simulation time is     0.     
    node    =voltage      node    =voltage      node    =voltage

 +0:100     =   0.      0:101     =   0.      0:102     =   0.     
 +0:vdd     =   1.0000  0:vin+    =   0.      0:vin-    =   0.     
 +0:vo+     =-197.0694u 0:vo-     =-197.0693u 0:vss     =  -1.0000 
 +1:1       = 325.7934m 1:2       = 602.5215m 1:3       = 450.8562m
 +1:4       = 854.8062m 1:5       = 854.8062m 1:6       =-444.1419m
 +1:7       = 273.1659m 1:8       =-868.1735m 1:9       =-868.1735m
 +1:10      =-400.0487m 1:11      = 955.2385m 1:12      = 196.2506m
 +1:13      = 196.2506m 1:14      =-219.0443m 1:15      =-219.0443m
 +2:1       = 287.0453m 3:1       = 287.0453m 4:2       =-302.1979m
 +5:2       =-302.1979m


 **** voltage sources

 subckt                                                         
 element  0:vdd      0:vss      0:vcm      0:vs       0:voff    
  volts      1.0000    -1.0000     1.0000     0.         0.     
  current -466.0004u  466.0004u    0.         0.         0.     
  power    466.0004u  466.0004u    0.         0.         0.     

     total voltage source power dissipation=  932.0008u       watts



 **** current sources

 subckt   x1        
 element  1:ib      
  volts      1.3258 
  current   10.0000u
  power    -13.2579u


     total current source power dissipation= -13.2579u       watts

 **** voltage-controlled voltage sources


 subckt                        
 element  0:e+       0:e-      
  volts      0.         0.     
  current    0.         0.     





 **** mosfets


 subckt   x1         x1         x1         x1         x1         x1        
 element  1:m01      1:m02      1:m03      1:m04      1:m05      1:m06     
 model    0:cmosp    0:cmosp    0:cmosp    0:cmosp    0:cmosp    0:cmosp   
 region     Saturati   Saturati   Saturati   Saturati   Saturati   Saturati
  id       -92.7967u  -92.7967u  -78.4522u  -78.4522u  -70.3268u  -70.3268u
  ibs        0.         0.         0.         0.         0.         0.     
  ibd        0.         0.         0.         0.         0.         0.     
  vgs     -602.5215m -602.5215m -549.1438m -549.1438m -658.5556m -658.5556m
  vds       -1.4707    -1.4707  -145.1938m -145.1938m -855.0033m -855.0033m
  vbs      397.4785m  397.4785m    0.         0.       145.1938m  145.1938m
  vth     -597.1322m -597.1322m -444.3206m -444.3206m -487.5106m -487.5106m
  vdsat    -64.7265m  -64.7265m -107.8058m -107.8058m -157.1349m -157.1349m
  vod       -5.3893m   -5.3893m -104.8232m -104.8232m -171.0450m -171.0450m
  beta      68.1300m   68.1300m   15.0761m   15.0761m    4.8904m    4.8904m
  gam eff  522.2123m  522.2123m  530.6820m  530.6820m  527.1898m  527.1898m
  gm         1.9236m    1.9236m    1.1441m    1.1441m  742.5489u  742.5489u
  gds       16.3361u   16.3361u   75.2224u   75.2224u    6.8200u    6.8200u
  gmb      505.8995u  505.8995u  348.2905u  348.2905u  215.0841u  215.0841u
  cdtot    185.6289f  185.6289f  119.6948f  119.6948f   36.1694f   36.1694f
  cgtot    264.4239f  264.4239f  232.6299f  232.6299f   79.2509f   79.2509f
  cstot    242.8691f  242.8691f  187.5246f  187.5246f   62.6476f   62.6476f
  cbtot    231.6141f  231.6141f  179.1556f  179.1556f   54.4342f   54.4342f
  cgs      153.4817f  153.4817f  172.6232f  172.6232f   60.2618f   60.2618f
  cgd       97.0029f   97.0029f   51.8481f   51.8481f   16.8293f   16.8293f



 subckt   x1         x1         x1         x1         x1         x1        
 element  1:m07      1:m08      1:m09      1:m10      1:m11      1:m12     
 model    0:cmosn    0:cmosn    0:cmosn    0:cmosn    0:cmosp    0:cmosn   
 region     Saturati   Saturati   Saturati   Saturati   Saturati   Saturati
  id        70.3268u   70.3268u  170.4662u  170.4662u  -10.0000u    9.6290u
  ibs        0.         0.         0.         0.         0.         0.     
  ibd        0.         0.         0.         0.         0.         0.     
  vgs      649.1292m  649.1292m  599.9513m  599.9513m -674.2066m  599.9513m
  vds      867.9764m  867.9764m  131.8265m  131.8265m -674.2066m  599.9513m
  vbs     -131.8265m -131.8265m    0.         0.         0.         0.     
  vth      509.6504m  509.6504m  477.9163m  477.9163m -442.6878m  462.6186m
  vdsat    116.1346m  116.1346m  103.3762m  103.3762m -192.2525m  111.7534m
  vod      139.4788m  139.4788m  122.0350m  122.0350m -231.5188m  137.3327m
  beta       7.3583m    7.3583m   27.8791m   27.8791m  421.8595u    1.1023m
  gam eff  574.9858m  574.9858m  576.4327m  576.4327m  527.0619m  566.2301m
  gm       890.2764u  890.2764u    2.2780m    2.2780m   80.6199u  125.7384u
  gds        9.0321u    9.0321u  306.3690u  306.3690u    1.0309u    1.5960u
  gmb      222.1771u  222.1771u  602.1480u  602.1480u   24.4742u   33.3079u
  cdtot     14.4483f   14.4620f   55.7068f   55.7068f    4.9862f    3.8698f
  cgtot     32.0316f   32.0316f  122.7784f  122.7784f    6.8158f    4.8292f
  cstot     23.1406f   23.1406f   88.6000f   88.6000f    5.7231f    3.7320f
  cbtot     20.0335f   20.0471f   77.6823f   77.6823f    6.9540f    4.9933f
  cgs       23.8311f   23.8311f   89.7272f   89.7272f    5.1880f    3.5947f
  cgd        6.7784f    6.7784f   27.3267f   27.3267f    1.4340f    1.0179f



 subckt   x1         x1         x1         x1         x1         x1        
 element  1:m13      1:m14      1:m15      1:m16      1:m17      1:m18     
 model    0:cmosp    0:cmosp    0:cmosn    0:cmosp    0:cmosp    0:cmosn   
 region       Linear     Linear   Saturati   Saturati   Saturati   Saturati
  id       -92.7967u  -92.7967u    9.5804u   -9.5804u -185.5934u    9.6726u
  ibs        0.         0.         0.         0.         0.         0.     
  ibd        0.         0.         0.         0.         0.         0.     
  vgs       -1.0002    -1.0002   599.9513m -549.1438m -629.4451m  599.9513m
  vds      -44.7615m  -44.7615m    1.4509  -549.1438m -352.7170m    1.2732 
  vbs        0.         0.         0.         0.        44.7615m    0.     
  vth     -444.3847m -444.3847m  455.5442m -443.6667m -458.0259m  457.1766m
  vdsat   -426.2738m -426.2738m  115.7582m -107.0837m -155.2133m  114.8298m
  vod     -555.8123m -555.8123m  144.4071m -105.4771m -171.4193m  142.7747m
  beta       4.1535m    4.1535m  955.3709u    1.6702m   13.8667m  992.0876u
  gam eff  530.4390m  530.4390m  564.6025m  529.8218m  529.6418m  565.0544m
  gm       153.7958u  153.7958u  119.4438u  142.5664u    1.9767m  121.8943u
  gds        1.9588m    1.9588m    1.1026u    1.3528u   36.7087u    1.1496u
  gmb       61.4461u   61.4461u   31.5864u   43.0157u  594.9889u   32.2437u
  cdtot     59.9847f   59.9847f    3.3953f   13.9205f  105.9866f    3.4928f
  cgtot     80.3082f   80.3082f    4.1930f   25.6094f  221.7170f    4.3522f
  cstot     47.6489f   47.6489f    3.2699f   20.9337f  177.7666f    3.3855f
  cbtot     59.6213f   59.6213f    4.3978f   20.8687f  160.7389f    4.5255f
  cgs       44.0903f   44.0903f    3.1279f   19.1001f  168.1994f    3.2450f
  cgd       36.5797f   36.5797f  881.9474a    5.5307f   47.2130f  915.8111a



 subckt   x1         x1         x1         x1         x1.x1      x1.x1     
 element  1:m19      1:m20      1:m21      1:m22      2:m1       2:m2      
 model    0:cmosp    0:cmosp    0:cmosp    0:cmosn    0:cmosp    0:cmosp   
 region     Saturati   Saturati   Saturati   Saturati   Saturati   Saturati
  id        -9.6726u   -9.6290u  -10.0062u   10.0062u   -8.1254u  -15.2264u
  ibs        0.         0.         0.         0.         0.         0.     
  ibd        0.         0.         0.         0.         0.         0.     
  vgs     -726.8341m -674.2066m -674.2066m  555.8581m -567.7609m -712.9547m
  vds     -726.8341m   -1.4000    -1.4441   555.8581m -567.7609m -803.7494m
  vbs        0.         0.         0.         0.       145.1938m    0.     
  vth     -441.9742m -441.3704m -441.3584m  470.2962m -487.7410m -442.8348m
  vdsat   -228.5077m -192.8701m -192.9942m   83.8615m  -94.6800m -220.9467m
  vod     -284.8599m -232.8362m -232.8482m   85.5619m  -80.0199m -270.1198m
  beta     275.4333u  383.1061u  396.8317u    2.4921m    2.0211m  470.5647u
  gam eff  525.1306m  526.6825m  526.8249m  572.1572m  526.8556m  528.1412m
  gm        62.5934u   76.4294u   79.3469u  169.9621u  134.9805u  103.9678u
  gds      915.8015n  685.4079n  703.8893n    1.9787u    1.2265u    1.3016u
  gmb       19.1105u   23.0968u   23.9817u   45.2435u   38.7121u   31.8904u
  cdtot      3.9137f    4.2764f    4.3482f    6.3610f   14.5370f    3.5266f
  cgtot      4.4955f    6.1858f    6.4075f   10.6399f   30.8502f    7.6727f
  cstot      3.8549f    5.2142f    5.3927f    7.9556f   24.5814f    6.3680f
  cbtot      5.2880f    6.0859f    6.2140f    8.6377f   22.0440f    5.6579f
  cgs        3.4290f    4.7054f    4.8738f    7.7283f   22.7550f    5.8465f
  cgd      943.8678a    1.3002f    1.3470f    2.3057f    6.8177f    1.6150f



 subckt   x1.x1      x1.x1      x1.x2      x1.x2      x1.x2      x1.x2     
 element  2:m3       2:m4       3:m1       3:m2       3:m3       3:m4      
 model    0:cmosn    0:cmosn    0:cmosp    0:cmosp    0:cmosn    0:cmosn   
 region     Saturati   Saturati   Saturati   Saturati   Saturati   Saturati
  id         8.1254u   15.2264u   -8.1254u  -15.2264u    8.1254u   15.2264u
  ibs        0.         0.         0.         0.         0.         0.     
  ibd        0.         0.         0.         0.         0.         0.     
  vgs      555.8581m  555.8581m -567.7609m -712.9547m  555.8581m  555.8581m
  vds        1.2870     1.1963  -567.7609m -803.7494m    1.2870     1.1963 
  vbs        0.         0.       145.1938m    0.         0.         0.     
  vth      465.4883m  469.3901m -487.7410m -442.8348m  465.4883m  469.3901m
  vdsat     86.3069m   84.3507m  -94.6800m -220.9467m   86.3069m   84.3507m
  vod       90.3698m   86.4680m  -80.0199m -270.1198m   90.3698m   86.4680m
  beta       1.7736m    3.5607m    2.0211m  470.5647u    1.7736m    3.5607m
  gam eff  571.5761m  574.2230m  526.8556m  528.1412m  571.5761m  574.2230m
  gm       133.5304u  255.0410u  134.9805u  103.9678u  133.5304u  255.0410u
  gds        1.1949u    2.2783u    1.2265u    1.3016u    1.1949u    2.2783u
  gmb       35.4806u   67.6324u   38.7121u   31.8904u   35.4806u   67.6324u
  cdtot      3.1493f    6.1978f   14.5370f    3.5266f    3.1493f    6.1978f
  cgtot      7.6043f   15.2054f   30.8502f    7.6727f    7.6043f   15.2054f
  cstot      5.7040f   11.2273f   24.5814f    6.3680f    5.7040f   11.2273f
  cbtot      4.7890f    9.3140f   22.0440f    5.6579f    4.7890f    9.3140f
  cgs        5.5435f   11.0405f   22.7550f    5.8465f    5.5435f   11.0405f
  cgd        1.6405f    3.2930f    6.8177f    1.6150f    1.6405f    3.2930f



 subckt   x1.x3      x1.x3      x1.x3      x1.x3      x1.x4      x1.x4     
 element  4:m1       4:m2       4:m3       4:m4       5:m1       5:m2      
 model    0:cmosp    0:cmosp    0:cmosn    0:cmosn    0:cmosp    0:cmosp   
 region     Saturati   Saturati   Saturati   Saturati   Saturati   Saturati
  id       -14.7381u   -7.3427u   14.7381u    7.3427u  -14.7381u   -7.3427u
  ibs        0.         0.         0.         0.         0.         0.     
  ibd        0.         0.         0.         0.         0.         0.     
  vgs     -726.8341m -726.8341m  697.8021m  565.9756m -726.8341m -726.8341m
  vds       -1.2190    -1.3022   780.9557m  565.9756m   -1.2190    -1.3022 
  vbs        0.         0.         0.      -131.8265m    0.         0.     
  vth     -442.0671m -440.6555m  454.3782m  509.3692m -442.0671m -440.6555m
  vdsat   -230.7734m -229.0552m  169.6091m   72.4521m -230.7734m -229.0552m
  vod     -284.7671m -286.1786m  243.4239m   56.6064m -284.7671m -286.1786m
  beta     402.3824u  200.1834u  576.1729u    2.9289m  402.3824u  200.1834u
  gam eff  527.6999m  524.5545m  560.5411m  573.2522m  527.6999m  524.5545m
  gm        94.6463u   47.0435u  112.5026u  140.7374u   94.6463u   47.0435u
  gds      965.1292n  488.4704n    1.5779u    1.5648u  965.1292n  488.4704n
  gmb       28.9970u   14.3056u   29.3182u   35.7178u   28.9970u   14.3056u
  cdtot      2.9117f    1.5044f    1.1609f    5.2864f    2.9117f    1.5044f
  cgtot      6.5779f    3.2639f    2.5358f   11.9546f    6.5779f    3.2639f
  cstot      5.4849f    2.8159f    2.0220f    8.7487f    5.4849f    2.8159f
  cbtot      4.7650f    2.5208f    1.7996f    7.6007f    4.7650f    2.5208f
  cgs        5.0127f    2.4886f    1.9110f    8.4589f    5.0127f    2.4886f
  cgd        1.3834f  684.5940a  529.7815a    2.7006f    1.3834f  684.5940a



 subckt   x1.x4      x1.x4     
 element  5:m3       5:m4      
 model    0:cmosn    0:cmosn   
 region     Saturati   Saturati
  id        14.7381u    7.3427u
  ibs        0.         0.     
  ibd        0.         0.     
  vgs      697.8021m  565.9756m
  vds      780.9557m  565.9756m
  vbs        0.      -131.8265m
  vth      454.3782m  509.3692m
  vdsat    169.6091m   72.4521m
  vod      243.4239m   56.6064m
  beta     576.1729u    2.9289m
  gam eff  560.5411m  573.2522m
  gm       112.5026u  140.7374u
  gds        1.5779u    1.5648u
  gmb       29.3182u   35.7178u
  cdtot      1.1609f    5.2864f
  cgtot      2.5358f   11.9546f
  cstot      2.0220f    8.7487f
  cbtot      1.7996f    7.6007f
  cgs        1.9110f    8.4589f
  cgd      529.7815a    2.7006f



1****** HSPICE -- F-2011.09 64-BIT (Sep  5 2011) linux ******                   
 ******  
 * eesm5120 amplifier design

  ******  noise analysis tnom=  25.000 temp=  25.000 *****

     frequency =   1.0000k      hz




 **** mosfet squared noise voltages (sq v/hz)




 element     1:m01
       rd    0.         
       rs    0.         
       id    4.5307n    
       rx   12.9905x    
       fn    0.         
    total    4.5307n    




 element     1:m02
       rd    0.         
       rs    0.         
       id    4.5307n    
       rx   12.9905x    
       fn    0.         
    total    4.5307n    




 element     1:m03
       rd    0.         
       rs    0.         
       id    2.9254n    
       rx   13.0389x    
       fn    0.         
    total    2.9254n    




 element     1:m04
       rd    0.         
       rs    0.         
       id    2.9254n    
       rx   13.0389x    
       fn    0.         
    total    2.9254n    




 element     1:m05
       rd    0.         
       rs    0.         
       id   13.1257f    
       rx   35.2113k    
       fn    0.         
    total   13.1257f    




 element     1:m06
       rd    0.         
       rs    0.         
       id   13.1257f    
       rx   35.2113k    
       fn    0.         
    total   13.1257f    




 element     1:m07
       rd    0.         
       rs    0.         
       id   86.0906f    
       rx   83.6261k    
       fn    0.         
    total   86.0906f    




 element     1:m08
       rd    0.         
       rs    0.         
       id   86.0906f    
       rx   83.6261k    
       fn    0.         
    total   86.0906f    




 element     1:m09
       rd    0.         
       rs    0.         
       id    5.9027n    
       rx   12.9905x    
       fn    0.         
    total    5.9027n    




 element     1:m10
       rd    0.         
       rs    0.         
       id    5.9027n    
       rx   12.9905x    
       fn    0.         
    total    5.9027n    




 element     1:m11
       rd    0.         
       rs    0.         
       id  5.692e-27    
       rx   69.9009m    
       fn    0.         
    total  5.692e-27    




 element     1:m12
       rd    0.         
       rs    0.         
       id  7.845e-26    
       rx  210.9182m    
       fn    0.         
    total  7.845e-26    




 element     1:m13
       rd    0.         
       rs    0.         
       id  3.159e-28    
       rx    3.6383m    
       fn    0.         
    total  3.159e-28    




 element     1:m14
       rd    0.         
       rs    0.         
       id  3.159e-28    
       rx    3.6383m    
       fn    0.         
    total  3.159e-28    




 element     1:m15
       rd    0.         
       rs    0.         
       id  3.499e-26    
       rx  144.7602m    
       fn    0.         
    total  3.499e-26    




 element     1:m16
       rd    0.         
       rs    0.         
       id  4.300e-26    
       rx  144.7602m    
       fn    0.         
    total  4.300e-26    




 element     1:m17
       rd    0.         
       rs    0.         
       id  8.550e-28    
       rx    5.4645m    
       fn    0.         
    total  8.550e-28    




 element     1:m18
       rd    0.         
       rs    0.         
       id  7.950e-28    
       rx   21.5966m    
       fn    0.         
    total  7.950e-28    




 element     1:m19
       rd    0.         
       rs    0.         
       id  4.230e-28    
       rx   21.5966m    
       fn    0.         
    total  4.230e-28    




 element     1:m20
       rd    0.         
       rs    0.         
       id  4.894e-26    
       rx  210.9182m    
       fn    0.         
    total  4.894e-26    




 element     1:m21
       rd    0.         
       rs    0.         
       id    0.         
       rx    4.9003m    
       fn    0.         
    total    0.         




 element     1:m22
       rd    0.         
       rs    0.         
       id    0.         
       rx    4.9003m    
       fn    0.         
    total    0.         




 element     2:m1
       rd    0.         
       rs    0.         
       id   56.2616p    
       rx    5.4131x    
       fn    0.         
    total   56.2616p    




 element     2:m2
       rd    0.         
       rs    0.         
       id   80.3150p    
       rx    7.3037x    
       fn    0.         
    total   80.3150p    




 element     2:m3
       rd    0.         
       rs    0.         
       id  636.1245p    
       rx   18.4520x    
       fn    0.         
    total  636.1245p    




 element     2:m4
       rd    0.         
       rs    0.         
       id  190.2782p    
       rx    7.3037x    
       fn    0.         
    total  190.2782p    




 element     3:m1
       rd    0.         
       rs    0.         
       id   56.2616p    
       rx    5.4131x    
       fn    0.         
    total   56.2616p    




 element     3:m2
       rd    0.         
       rs    0.         
       id   80.3150p    
       rx    7.3037x    
       fn    0.         
    total   80.3150p    




 element     3:m3
       rd    0.         
       rs    0.         
       id  636.1245p    
       rx   18.4520x    
       fn    0.         
    total  636.1245p    




 element     3:m4
       rd    0.         
       rs    0.         
       id  190.2782p    
       rx    7.3037x    
       fn    0.         
    total  190.2782p    




 element     4:m1
       rd    0.         
       rs    0.         
       id    1.1723n    
       rx   29.2760x    
       fn    0.         
    total    1.1723n    




 element     4:m2
       rd    0.         
       rs    0.         
       id  880.2968p    
       rx   36.0122x    
       fn    0.         
    total  880.2968p    




 element     4:m3
       rd    0.         
       rs    0.         
       id    1.3491n    
       rx   29.2760x    
       fn    0.         
    total    1.3491n    




 element     4:m4
       rd    0.         
       rs    0.         
       id    1.0357n    
       rx   23.0217x    
       fn    0.         
    total    1.0357n    




 element     5:m1
       rd    0.         
       rs    0.         
       id    1.1723n    
       rx   29.2760x    
       fn    0.         
    total    1.1723n    




 element     5:m2
       rd    0.         
       rs    0.         
       id  880.2968p    
       rx   36.0122x    
       fn    0.         
    total  880.2968p    




 element     5:m3
       rd    0.         
       rs    0.         
       id    1.3491n    
       rx   29.2760x    
       fn    0.         
    total    1.3491n    




 element     5:m4
       rd    0.         
       rs    0.         
       id    1.0357n    
       rx   23.0217x    
       fn    0.         
    total    1.0357n    




 **** total output noise voltage         =  37.5187n       sq v/hz
                                         = 193.6974u       v/rt hz
      transfer function value:
        v(vo+,vo-)/vs                    =  24.9891k      
      equivalent input noise at  vs                           
                                         =   7.7513n       /rt hz



 **** the results of the sqrt of integral (v**2 / freq)
      from fstart upto    1.0000k      hz. using more freq points
      results in more accurate total noise values.

 **** total output noise voltage   =    0.            volts
 **** total equivalent input noise =    0.           



1****** HSPICE -- F-2011.09 64-BIT (Sep  5 2011) linux ******                   
 ******  
 * eesm5120 amplifier design

  ******  noise analysis tnom=  25.000 temp=  25.000 *****

     frequency =  10.0000k      hz




 **** mosfet squared noise voltages (sq v/hz)




 element     1:m01
       rd    0.         
       rs    0.         
       id    2.3903n    
       rx    9.4355x    
       fn    0.         
    total    2.3903n    




 element     1:m02
       rd    0.         
       rs    0.         
       id    2.3903n    
       rx    9.4355x    
       fn    0.         
    total    2.3903n    




 element     1:m03
       rd    0.         
       rs    0.         
       id    1.5434n    
       rx    9.4707x    
       fn    0.         
    total    1.5434n    




 element     1:m04
       rd    0.         
       rs    0.         
       id    1.5434n    
       rx    9.4707x    
       fn    0.         
    total    1.5434n    




 element     1:m05
       rd    0.         
       rs    0.         
       id    6.9251f    
       rx   25.5760k    
       fn    0.         
    total    6.9251f    




 element     1:m06
       rd    0.         
       rs    0.         
       id    6.9251f    
       rx   25.5760k    
       fn    0.         
    total    6.9251f    




 element     1:m07
       rd    0.         
       rs    0.         
       id   45.4190f    
       rx   60.7411k    
       fn    0.         
    total   45.4190f    




 element     1:m08
       rd    0.         
       rs    0.         
       id   45.4190f    
       rx   60.7411k    
       fn    0.         
    total   45.4190f    




 element     1:m09
       rd    0.         
       rs    0.         
       id    3.1141n    
       rx    9.4355x    
       fn    0.         
    total    3.1141n    




 element     1:m10
       rd    0.         
       rs    0.         
       id    3.1141n    
       rx    9.4355x    
       fn    0.         
    total    3.1141n    




 element     1:m11
       rd    0.         
       rs    0.         
       id  3.003e-25    
       rx  507.7187m    
       fn    0.         
    total  3.003e-25    




 element     1:m12
       rd    0.         
       rs    0.         
       id  4.139e-24    
       rx    1.5320     
       fn    0.         
    total  4.139e-24    




 element     1:m13
       rd    0.         
       rs    0.         
       id  1.667e-26    
       rx   26.4265m    
       fn    0.         
    total  1.667e-26    




 element     1:m14
       rd    0.         
       rs    0.         
       id  1.667e-26    
       rx   26.4265m    
       fn    0.         
    total  1.667e-26    




 element     1:m15
       rd    0.         
       rs    0.         
       id  1.846e-24    
       rx    1.0515     
       fn    0.         
    total  1.846e-24    




 element     1:m16
       rd    0.         
       rs    0.         
       id  2.269e-24    
       rx    1.0515     
       fn    0.         
    total  2.269e-24    




 element     1:m17
       rd    0.         
       rs    0.         
       id  4.511e-26    
       rx   39.6908m    
       fn    0.         
    total  4.511e-26    




 element     1:m18
       rd    0.         
       rs    0.         
       id  4.194e-26    
       rx  156.8652m    
       fn    0.         
    total  4.194e-26    




 element     1:m19
       rd    0.         
       rs    0.         
       id  2.232e-26    
       rx  156.8652m    
       fn    0.         
    total  2.232e-26    




 element     1:m20
       rd    0.         
       rs    0.         
       id  2.582e-24    
       rx    1.5320     
       fn    0.         
    total  2.582e-24    




 element     1:m21
       rd    0.         
       rs    0.         
       id  1.447e-27    
       rx   35.5929m    
       fn    0.         
    total  1.447e-27    




 element     1:m22
       rd    0.         
       rs    0.         
       id  3.020e-27    
       rx   35.5929m    
       fn    0.         
    total  3.020e-27    




 element     2:m1
       rd    0.         
       rs    0.         
       id   29.6820p    
       rx    3.9318x    
       fn    0.         
    total   29.6820p    




 element     2:m2
       rd    0.         
       rs    0.         
       id   42.3719p    
       rx    5.3050x    
       fn    0.         
    total   42.3719p    




 element     2:m3
       rd    0.         
       rs    0.         
       id  335.6012p    
       rx   13.4025x    
       fn    0.         
    total  335.6012p    




 element     2:m4
       rd    0.         
       rs    0.         
       id  100.3854p    
       rx    5.3050x    
       fn    0.         
    total  100.3854p    




 element     3:m1
       rd    0.         
       rs    0.         
       id   29.6820p    
       rx    3.9318x    
       fn    0.         
    total   29.6820p    




 element     3:m2
       rd    0.         
       rs    0.         
       id   42.3719p    
       rx    5.3050x    
       fn    0.         
    total   42.3719p    




 element     3:m3
       rd    0.         
       rs    0.         
       id  335.6012p    
       rx   13.4025x    
       fn    0.         
    total  335.6012p    




 element     3:m4
       rd    0.         
       rs    0.         
       id  100.3854p    
       rx    5.3050x    
       fn    0.         
    total  100.3854p    




 element     4:m1
       rd    0.         
       rs    0.         
       id  618.4875p    
       rx   21.2644x    
       fn    0.         
    total  618.4875p    




 element     4:m2
       rd    0.         
       rs    0.         
       id  464.4196p    
       rx   26.1571x    
       fn    0.         
    total  464.4196p    




 element     4:m3
       rd    0.         
       rs    0.         
       id  711.7518p    
       rx   21.2644x    
       fn    0.         
    total  711.7518p    




 element     4:m4
       rd    0.         
       rs    0.         
       id  546.3893p    
       rx   16.7216x    
       fn    0.         
    total  546.3893p    




 element     5:m1
       rd    0.         
       rs    0.         
       id  618.4874p    
       rx   21.2644x    
       fn    0.         
    total  618.4874p    




 element     5:m2
       rd    0.         
       rs    0.         
       id  464.4196p    
       rx   26.1571x    
       fn    0.         
    total  464.4196p    




 element     5:m3
       rd    0.         
       rs    0.         
       id  711.7518p    
       rx   21.2644x    
       fn    0.         
    total  711.7518p    




 element     5:m4
       rd    0.         
       rs    0.         
       id  546.3893p    
       rx   16.7216x    
       fn    0.         
    total  546.3893p    




 **** total output noise voltage         =  19.7938n       sq v/hz
                                         = 140.6904u       v/rt hz
      transfer function value:
        v(vo+,vo-)/vs                    =  18.1506k      
      equivalent input noise at  vs                           
                                         =   7.7513n       /rt hz



 **** the results of the sqrt of integral (v**2 / freq)
      from fstart upto   10.0000k      hz. using more freq points
      results in more accurate total noise values.

 **** total output noise voltage   =   16.2622m       volts
 **** total equivalent input noise =  735.3510n      



1****** HSPICE -- F-2011.09 64-BIT (Sep  5 2011) linux ******                   
 ******  
 * eesm5120 amplifier design

  ******  noise analysis tnom=  25.000 temp=  25.000 *****

     frequency = 100.0000k      hz




 **** mosfet squared noise voltages (sq v/hz)




 element     1:m01
       rd    0.         
       rs    0.         
       id   49.5466p    
       rx    1.3585x    
       fn    0.         
    total   49.5466p    




 element     1:m02
       rd    0.         
       rs    0.         
       id   49.5466p    
       rx    1.3585x    
       fn    0.         
    total   49.5466p    




 element     1:m03
       rd    0.         
       rs    0.         
       id   31.9918p    
       rx    1.3635x    
       fn    0.         
    total   31.9918p    




 element     1:m04
       rd    0.         
       rs    0.         
       id   31.9918p    
       rx    1.3635x    
       fn    0.         
    total   31.9918p    




 element     1:m05
       rd    0.         
       rs    0.         
       id  143.7607a    
       rx    3.6850k    
       fn    0.         
    total  143.7607a    




 element     1:m06
       rd    0.         
       rs    0.         
       id  143.7702a    
       rx    3.6851k    
       fn    0.         
    total  143.7702a    




 element     1:m07
       rd    0.         
       rs    0.         
       id  941.5936a    
       rx    8.7457k    
       fn    0.         
    total  941.5936a    




 element     1:m08
       rd    0.         
       rs    0.         
       id  941.6199a    
       rx    8.7458k    
       fn    0.         
    total  941.6199a    




 element     1:m09
       rd    0.         
       rs    0.         
       id   64.5507p    
       rx    1.3585x    
       fn    0.         
    total   64.5507p    




 element     1:m10
       rd    0.         
       rs    0.         
       id   64.5507p    
       rx    1.3585x    
       fn    0.         
    total   64.5507p    




 element     1:m11
       rd    0.         
       rs    0.         
       id  6.224e-25    
       rx  730.9353m    
       fn    0.         
    total  6.224e-25    




 element     1:m12
       rd    0.         
       rs    0.         
       id  8.577e-24    
       rx    2.2055     
       fn    0.         
    total  8.577e-24    




 element     1:m13
       rd    0.         
       rs    0.         
       id  3.454e-26    
       rx   38.0446m    
       fn    0.         
    total  3.454e-26    




 element     1:m14
       rd    0.         
       rs    0.         
       id  3.454e-26    
       rx   38.0446m    
       fn    0.         
    total  3.454e-26    




 element     1:m15
       rd    0.         
       rs    0.         
       id  3.826e-24    
       rx    1.5137     
       fn    0.         
    total  3.826e-24    




 element     1:m16
       rd    0.         
       rs    0.         
       id  4.702e-24    
       rx    1.5137     
       fn    0.         
    total  4.702e-24    




 element     1:m17
       rd    0.         
       rs    0.         
       id  9.348e-26    
       rx   57.1403m    
       fn    0.         
    total  9.348e-26    




 element     1:m18
       rd    0.         
       rs    0.         
       id  8.693e-26    
       rx  225.8298m    
       fn    0.         
    total  8.693e-26    




 element     1:m19
       rd    0.         
       rs    0.         
       id  4.625e-26    
       rx  225.8298m    
       fn    0.         
    total  4.625e-26    




 element     1:m20
       rd    0.         
       rs    0.         
       id  5.351e-24    
       rx    2.2055     
       fn    0.         
    total  5.351e-24    




 element     1:m21
       rd    0.         
       rs    0.         
       id  2.999e-27    
       rx   51.2453m    
       fn    0.         
    total  2.999e-27    




 element     1:m22
       rd    0.         
       rs    0.         
       id  6.261e-27    
       rx   51.2453m    
       fn    0.         
    total  6.261e-27    




 element     2:m1
       rd    0.         
       rs    0.         
       id  615.2637f    
       rx  566.0735k    
       fn    0.         
    total  615.2637f    




 element     2:m2
       rd    0.         
       rs    0.         
       id  878.3067f    
       rx  763.7838k    
       fn    0.         
    total  878.3067f    




 element     2:m3
       rd    0.         
       rs    0.         
       id    6.9565p    
       rx    1.9296x    
       fn    0.         
    total    6.9565p    




 element     2:m4
       rd    0.         
       rs    0.         
       id    2.0808p    
       rx  763.7838k    
       fn    0.         
    total    2.0808p    




 element     3:m1
       rd    0.         
       rs    0.         
       id  615.2636f    
       rx  566.0735k    
       fn    0.         
    total  615.2636f    




 element     3:m2
       rd    0.         
       rs    0.         
       id  878.3066f    
       rx  763.7838k    
       fn    0.         
    total  878.3066f    




 element     3:m3
       rd    0.         
       rs    0.         
       id    6.9565p    
       rx    1.9296x    
       fn    0.         
    total    6.9565p    




 element     3:m4
       rd    0.         
       rs    0.         
       id    2.0808p    
       rx  763.7838k    
       fn    0.         
    total    2.0808p    




 element     4:m1
       rd    0.         
       rs    0.         
       id   12.8203p    
       rx    3.0615x    
       fn    0.         
    total   12.8203p    




 element     4:m2
       rd    0.         
       rs    0.         
       id    9.6267p    
       rx    3.7659x    
       fn    0.         
    total    9.6267p    




 element     4:m3
       rd    0.         
       rs    0.         
       id   14.7535p    
       rx    3.0615x    
       fn    0.         
    total   14.7535p    




 element     4:m4
       rd    0.         
       rs    0.         
       id   11.3258p    
       rx    2.4075x    
       fn    0.         
    total   11.3258p    




 element     5:m1
       rd    0.         
       rs    0.         
       id   12.8203p    
       rx    3.0615x    
       fn    0.         
    total   12.8203p    




 element     5:m2
       rd    0.         
       rs    0.         
       id    9.6267p    
       rx    3.7659x    
       fn    0.         
    total    9.6267p    




 element     5:m3
       rd    0.         
       rs    0.         
       id   14.7535p    
       rx    3.0615x    
       fn    0.         
    total   14.7535p    




 element     5:m4
       rd    0.         
       rs    0.         
       id   11.3258p    
       rx    2.4075x    
       fn    0.         
    total   11.3258p    




 **** total output noise voltage         = 410.2949p       sq v/hz
                                         =  20.2557u       v/rt hz
      transfer function value:
        v(vo+,vo-)/vs                    =   2.6132k      
      equivalent input noise at  vs                           
                                         =   7.7513n       /rt hz



 **** the results of the sqrt of integral (v**2 / freq)
      from fstart upto  100.0000k      hz. using more freq points
      results in more accurate total noise values.

 **** total output noise voltage   =   23.3112m       volts
 **** total equivalent input noise =    2.4389u      



1****** HSPICE -- F-2011.09 64-BIT (Sep  5 2011) linux ******                   
 ******  
 * eesm5120 amplifier design

  ******  noise analysis tnom=  25.000 temp=  25.000 *****

     frequency =   1.0000x      hz




 **** mosfet squared noise voltages (sq v/hz)




 element     1:m01
       rd    0.         
       rs    0.         
       id  500.8410f    
       rx  136.5819k    
       fn    0.         
    total  500.8410f    




 element     1:m02
       rd    0.         
       rs    0.         
       id  500.8411f    
       rx  136.5820k    
       fn    0.         
    total  500.8411f    




 element     1:m03
       rd    0.         
       rs    0.         
       id  323.3901f    
       rx  137.0913k    
       fn    0.         
    total  323.3901f    




 element     1:m04
       rd    0.         
       rs    0.         
       id  323.3900f    
       rx  137.0913k    
       fn    0.         
    total  323.3900f    




 element     1:m05
       rd    0.         
       rs    0.         
       id    1.6708a    
       rx  397.2706     
       fn    0.         
    total    1.6708a    




 element     1:m06
       rd    0.         
       rs    0.         
       id    1.6707a    
       rx  397.2559     
       fn    0.         
    total    1.6707a    




 element     1:m07
       rd    0.         
       rs    0.         
       id    9.6606a    
       rx  885.8614     
       fn    0.         
    total    9.6606a    




 element     1:m08
       rd    0.         
       rs    0.         
       id    9.6603a    
       rx  885.8457     
       fn    0.         
    total    9.6603a    




 element     1:m09
       rd    0.         
       rs    0.         
       id  652.5100f    
       rx  136.5820k    
       fn    0.         
    total  652.5100f    




 element     1:m10
       rd    0.         
       rs    0.         
       id  652.5098f    
       rx  136.5819k    
       fn    0.         
    total  652.5098f    




 element     1:m11
       rd    0.         
       rs    0.         
       id  6.212e-25    
       rx  730.2313m    
       fn    0.         
    total  6.212e-25    




 element     1:m12
       rd    0.         
       rs    0.         
       id  8.556e-24    
       rx    2.2028     
       fn    0.         
    total  8.556e-24    




 element     1:m13
       rd    0.         
       rs    0.         
       id  3.444e-26    
       rx   37.9872m    
       fn    0.         
    total  3.444e-26    




 element     1:m14
       rd    0.         
       rs    0.         
       id  3.444e-26    
       rx   37.9872m    
       fn    0.         
    total  3.444e-26    




 element     1:m15
       rd    0.         
       rs    0.         
       id  3.813e-24    
       rx    1.5110     
       fn    0.         
    total  3.813e-24    




 element     1:m16
       rd    0.         
       rs    0.         
       id  4.685e-24    
       rx    1.5110     
       fn    0.         
    total  4.685e-24    




 element     1:m17
       rd    0.         
       rs    0.         
       id  9.319e-26    
       rx   57.0498m    
       fn    0.         
    total  9.319e-26    




 element     1:m18
       rd    0.         
       rs    0.         
       id  8.672e-26    
       rx  225.5507m    
       fn    0.         
    total  8.672e-26    




 element     1:m19
       rd    0.         
       rs    0.         
       id  4.614e-26    
       rx  225.5507m    
       fn    0.         
    total  4.614e-26    




 element     1:m20
       rd    0.         
       rs    0.         
       id  5.338e-24    
       rx    2.2028     
       fn    0.         
    total  5.338e-24    




 element     1:m21
       rd    0.         
       rs    0.         
       id  3.041e-27    
       rx   51.6077m    
       fn    0.         
    total  3.041e-27    




 element     1:m22
       rd    0.         
       rs    0.         
       id  6.349e-27    
       rx   51.6077m    
       fn    0.         
    total  6.349e-27    




 element     2:m1
       rd    0.         
       rs    0.         
       id    6.2201f    
       rx   56.9170k    
       fn    0.         
    total    6.2201f    




 element     2:m2
       rd    0.         
       rs    0.         
       id    8.8798f    
       rx   76.7980k    
       fn    0.         
    total    8.8798f    




 element     2:m3
       rd    0.         
       rs    0.         
       id   70.3217f    
       rx  194.0073k    
       fn    0.         
    total   70.3217f    




 element     2:m4
       rd    0.         
       rs    0.         
       id   21.0376f    
       rx   76.7980k    
       fn    0.         
    total   21.0376f    




 element     3:m1
       rd    0.         
       rs    0.         
       id    6.2201f    
       rx   56.9170k    
       fn    0.         
    total    6.2201f    




 element     3:m2
       rd    0.         
       rs    0.         
       id    8.8798f    
       rx   76.7980k    
       fn    0.         
    total    8.8798f    




 element     3:m3
       rd    0.         
       rs    0.         
       id   70.3217f    
       rx  194.0073k    
       fn    0.         
    total   70.3217f    




 element     3:m4
       rd    0.         
       rs    0.         
       id   21.0376f    
       rx   76.7980k    
       fn    0.         
    total   21.0376f    




 element     4:m1
       rd    0.         
       rs    0.         
       id  129.5970f    
       rx  307.8112k    
       fn    0.         
    total  129.5970f    




 element     4:m2
       rd    0.         
       rs    0.         
       id   97.3126f    
       rx  378.6336k    
       fn    0.         
    total   97.3126f    




 element     4:m3
       rd    0.         
       rs    0.         
       id  149.1394f    
       rx  307.8112k    
       fn    0.         
    total  149.1394f    




 element     4:m4
       rd    0.         
       rs    0.         
       id  114.4894f    
       rx  242.0522k    
       fn    0.         
    total  114.4894f    




 element     5:m1
       rd    0.         
       rs    0.         
       id  129.5969f    
       rx  307.8111k    
       fn    0.         
    total  129.5969f    




 element     5:m2
       rd    0.         
       rs    0.         
       id   97.3125f    
       rx  378.6336k    
       fn    0.         
    total   97.3125f    




 element     5:m3
       rd    0.         
       rs    0.         
       id  149.1394f    
       rx  307.8111k    
       fn    0.         
    total  149.1394f    




 element     5:m4
       rd    0.         
       rs    0.         
       id  114.4894f    
       rx  242.0521k    
       fn    0.         
    total  114.4894f    




 **** total output noise voltage         =   4.1475p       sq v/hz
                                         =   2.0365u       v/rt hz
      transfer function value:
        v(vo+,vo-)/vs                    = 262.7348       
      equivalent input noise at  vs                           
                                         =   7.7513n       /rt hz



 **** the results of the sqrt of integral (v**2 / freq)
      from fstart upto    1.0000x      hz. using more freq points
      results in more accurate total noise values.

 **** total output noise voltage   =   24.0955m       volts
 **** total equivalent input noise =    7.7474u      



 ******  
 * eesm5120 amplifier design

  ******  ac analysis tnom=  25.000 temp=  25.000 *****

a


 legend:

  a: inoise(mag)
  b: onoise(mag)

      freq       inoise(mag)
 (a       )       1.0000f     100.0000p      10.0000u       1.0000     100.0000k
 (b       )       1.0000u      10.0000u     100.0000u       1.0000m     10.0000m
                      +             +             +             +             + 
    1.0000k    7.751n-+------+------+----a-+------+---b--+------+------+------+-
    1.0023k    7.751n +      +      +    a +      +   b  +      +      +      + 
    1.0046k    7.751n +      +      +    a +      +   b  +      +      +      + 
    1.0069k    7.751n +      +      +    a +      +   b  +      +      +      + 
    1.0093k    7.751n +      +      +    a +      +   b  +      +      +      + 
    1.0116k    7.751n +      +      +    a +      +   b  +      +      +      + 
    1.0139k    7.751n +      +      +    a +      +   b  +      +      +      + 
    1.0162k    7.751n +      +      +    a +      +   b  +      +      +      + 
    1.0186k    7.751n +      +      +    a +      +   b  +      +      +      + 
    1.0209k    7.751n +      +      +    a +      +   b  +      +      +      + 
    1.0233k    7.751n-+------+------+----a-+------+---b--+------+------+------+-
    1.0257k    7.751n +      +      +    a +      +   b  +      +      +      + 
    1.0280k    7.751n +      +      +    a +      +   b  +      +      +      + 
    1.0304k    7.751n +      +      +    a +      +   b  +      +      +      + 
    1.0328k    7.751n +      +      +    a +      +   b  +      +      +      + 
    1.0351k    7.751n +      +      +    a +      +   b  +      +      +      + 
    1.0375k    7.751n +      +      +    a +      +   b  +      +      +      + 
    1.0399k    7.751n +      +      +    a +      +   b  +      +      +      + 
    1.0423k    7.751n +      +      +    a +      +   b  +      +      +      + 
    1.0447k    7.751n +      +      +    a +      +   b  +      +      +      + 
    1.0471k    7.751n-+------+------+----a-+------+---b--+------+------+------+-
    1.0495k    7.751n +      +      +    a +      +   b  +      +      +      + 
    1.0520k    7.751n +      +      +    a +      +   b  +      +      +      + 
    1.0544k    7.751n +      +      +    a +      +   b  +      +      +      + 
    1.0568k    7.751n +      +      +    a +      +   b  +      +      +      + 
    1.0593k    7.751n +      +      +    a +      +   b  +      +      +      + 
    1.0617k    7.751n +      +      +    a +      +   b  +      +      +      + 
    1.0641k    7.751n +      +      +    a +      +   b  +      +      +      + 
    1.0666k    7.751n +      +      +    a +      +   b  +      +      +      + 
    1.0691k    7.751n +      +      +    a +      +   b  +      +      +      + 
    1.0715k    7.751n-+------+------+----a-+------+---b--+------+------+------+-
    1.0740k    7.751n +      +      +    a +      +   b  +      +      +      + 
    1.0765k    7.751n +      +      +    a +      +   b  +      +      +      + 
    1.0789k    7.751n +      +      +    a +      +   b  +      +      +      + 
    1.0814k    7.751n +      +      +    a +      +   b  +      +      +      + 
    1.0839k    7.751n +      +      +    a +      +   b  +      +      +      + 
    1.0864k    7.751n +      +      +    a +      +   b  +      +      +      + 
    1.0889k    7.751n +      +      +    a +      +   b  +      +      +      + 
    1.0914k    7.751n +      +      +    a +      +   b  +      +      +      + 
    1.0940k    7.751n +      +      +    a +      +   b  +      +      +      + 
    1.0965k    7.751n-+------+------+----a-+------+---b--+------+------+------+-
    1.0990k    7.751n +      +      +    a +      +   b  +      +      +      + 
    1.1015k    7.751n +      +      +    a +      +   b  +      +      +      + 
    1.1041k    7.751n +      +      +    a +      +   b  +      +      +      + 
    1.1066k    7.751n +      +      +    a +      +   b  +      +      +      + 
    1.1092k    7.751n +      +      +    a +      +   b  +      +      +      + 
    1.1117k    7.751n +      +      +    a +      +   b  +      +      +      + 
    1.1143k    7.751n +      +      +    a +      +   b  +      +      +      + 
    1.1169k    7.751n +      +      +    a +      +   b  +      +      +      + 
    1.1194k    7.751n +      +      +    a +      +   b  +      +      +      + 
    1.1220k    7.751n-+------+------+----a-+------+---b--+------+------+------+-
    1.1246k    7.751n +      +      +    a +      +   b  +      +      +      + 
    1.1272k    7.751n +      +      +    a +      +   b  +      +      +      + 
    1.1298k    7.751n +      +      +    a +      +   b  +      +      +      + 
    1.1324k    7.751n +      +      +    a +      +   b  +      +      +      + 
    1.1350k    7.751n +      +      +    a +      +   b  +      +      +      + 
    1.1376k    7.751n +      +      +    a +      +   b  +      +      +      + 
    1.1402k    7.751n +      +      +    a +      +   b  +      +      +      + 
    1.1429k    7.751n +      +      +    a +      +   b  +      +      +      + 
    1.1455k    7.751n +      +      +    a +      +   b  +      +      +      + 
    1.1482k    7.751n-+------+------+----a-+------+---b--+------+------+------+-
    1.1508k    7.751n +      +      +    a +      +   b  +      +      +      + 
    1.1535k    7.751n +      +      +    a +      +   b  +      +      +      + 
    1.1561k    7.751n +      +      +    a +      +   b  +      +      +      + 
    1.1588k    7.751n +      +      +    a +      +   b  +      +      +      + 
    1.1614k    7.751n +      +      +    a +      +   b  +      +      +      + 
    1.1641k    7.751n +      +      +    a +      +   b  +      +      +      + 
    1.1668k    7.751n +      +      +    a +      +   b  +      +      +      + 
    1.1695k    7.751n +      +      +    a +      +   b  +      +      +      + 
    1.1722k    7.751n +      +      +    a +      +   b  +      +      +      + 
    1.1749k    7.751n-+------+------+----a-+------+---b--+------+------+------+-
    1.1776k    7.751n +      +      +    a +      +   b  +      +      +      + 
    1.1803k    7.751n +      +      +    a +      +   b  +      +      +      + 
    1.1830k    7.751n +      +      +    a +      +   b  +      +      +      + 
    1.1858k    7.751n +      +      +    a +      +   b  +      +      +      + 
    1.1885k    7.751n +      +      +    a +      +   b  +      +      +      + 
    1.1912k    7.751n +      +      +    a +      +   b  +      +      +      + 
    1.1940k    7.751n +      +      +    a +      +   b  +      +      +      + 
    1.1967k    7.751n +      +      +    a +      +   b  +      +      +      + 
    1.1995k    7.751n +      +      +    a +      +   b  +      +      +      + 
    1.2023k    7.751n-+------+------+----a-+------+---b--+------+------+------+-
    1.2050k    7.751n +      +      +    a +      +   b  +      +      +      + 
    1.2078k    7.751n +      +      +    a +      +   b  +      +      +      + 
    1.2106k    7.751n +      +      +    a +      +   b  +      +      +      + 
    1.2134k    7.751n +      +      +    a +      +   b  +      +      +      + 
    1.2162k    7.751n +      +      +    a +      +   b  +      +      +      + 
    1.2190k    7.751n +      +      +    a +      +   b  +      +      +      + 
    1.2218k    7.751n +      +      +    a +      +   b  +      +      +      + 
    1.2246k    7.751n +      +      +    a +      +   b  +      +      +      + 
    1.2274k    7.751n +      +      +    a +      +   b  +      +      +      + 
    1.2303k    7.751n-+------+------+----a-+------+---b--+------+------+------+-
    1.2331k    7.751n +      +      +    a +      +   b  +      +      +      + 
    1.2359k    7.751n +      +      +    a +      +   b  +      +      +      + 
    1.2388k    7.751n +      +      +    a +      +   b  +      +      +      + 
    1.2417k    7.751n +      +      +    a +      +   b  +      +      +      + 
    1.2445k    7.751n +      +      +    a +      +   b  +      +      +      + 
    1.2474k    7.751n +      +      +    a +      +   b  +      +      +      + 
    1.2503k    7.751n +      +      +    a +      +   b  +      +      +      + 
    1.2531k    7.751n +      +      +    a +      +   b  +      +      +      + 
    1.2560k    7.751n +      +      +    a +      +   b  +      +      +      + 
    1.2589k    7.751n-+------+------+----a-+------+---b--+------+------+------+-
    1.2618k    7.751n +      +      +    a +      +   b  +      +      +      + 
    1.2647k    7.751n +      +      +    a +      +   b  +      +      +      + 
    1.2677k    7.751n +      +      +    a +      +   b  +      +      +      + 
    1.2706k    7.751n +      +      +    a +      +   b  +      +      +      + 
    1.2735k    7.751n +      +      +    a +      +   b  +      +      +      + 
    1.2764k    7.751n +      +      +    a +      +   b  +      +      +      + 
    1.2794k    7.751n +      +      +    a +      +   b  +      +      +      + 
    1.2823k    7.751n +      +      +    a +      +   b  +      +      +      + 
    1.2853k    7.751n +      +      +    a +      +   b  +      +      +      + 
    1.2882k    7.751n-+------+------+----a-+------+---b--+------+------+------+-
    1.2912k    7.751n +      +      +    a +      +   b  +      +      +      + 
    1.2942k    7.751n +      +      +    a +      +   b  +      +      +      + 
    1.2972k    7.751n +      +      +    a +      +   b  +      +      +      + 
    1.3002k    7.751n +      +      +    a +      +   b  +      +      +      + 
    1.3032k    7.751n +      +      +    a +      +   b  +      +      +      + 
    1.3062k    7.751n +      +      +    a +      +   b  +      +      +      + 
    1.3092k    7.751n +      +      +    a +      +   b  +      +      +      + 
    1.3122k    7.751n +      +      +    a +      +   b  +      +      +      + 
    1.3152k    7.751n +      +      +    a +      +   b  +      +      +      + 
    1.3183k    7.751n-+------+------+----a-+------+---b--+------+------+------+-
    1.3213k    7.751n +      +      +    a +      +   b  +      +      +      + 
    1.3243k    7.751n +      +      +    a +      +   b  +      +      +      + 
    1.3274k    7.751n +      +      +    a +      +   b  +      +      +      + 
    1.3305k    7.751n +      +      +    a +      +   b  +      +      +      + 
    1.3335k    7.751n +      +      +    a +      +   b  +      +      +      + 
    1.3366k    7.751n +      +      +    a +      +   b  +      +      +      + 
    1.3397k    7.751n +      +      +    a +      +   b  +      +      +      + 
    1.3428k    7.751n +      +      +    a +      +   b  +      +      +      + 
    1.3459k    7.751n +      +      +    a +      +   b  +      +      +      + 
    1.3490k    7.751n-+------+------+----a-+------+---b--+------+------+------+-
    1.3521k    7.751n +      +      +    a +      +   b  +      +      +      + 
    1.3552k    7.751n +      +      +    a +      +   b  +      +      +      + 
    1.3583k    7.751n +      +      +    a +      +   b  +      +      +      + 
    1.3614k    7.751n +      +      +    a +      +   b  +      +      +      + 
    1.3646k    7.751n +      +      +    a +      +   b  +      +      +      + 
    1.3677k    7.751n +      +      +    a +      +   b  +      +      +      + 
    1.3709k    7.751n +      +      +    a +      +   b  +      +      +      + 
    1.3740k    7.751n +      +      +    a +      +   b  +      +      +      + 
    1.3772k    7.751n +      +      +    a +      +   b  +      +      +      + 
    1.3804k    7.751n-+------+------+----a-+------+---b--+------+------+------+-
    1.3836k    7.751n +      +      +    a +      +   b  +      +      +      + 
    1.3868k    7.751n +      +      +    a +      +   b  +      +      +      + 
    1.3900k    7.751n +      +      +    a +      +   b  +      +      +      + 
    1.3932k    7.751n +      +      +    a +      +   b  +      +      +      + 
    1.3964k    7.751n +      +      +    a +      +   b  +      +      +      + 
    1.3996k    7.751n +      +      +    a +      +   b  +      +      +      + 
    1.4028k    7.751n +      +      +    a +      +   b  +      +      +      + 
    1.4060k    7.751n +      +      +    a +      +   b  +      +      +      + 
    1.4093k    7.751n +      +      +    a +      +   b  +      +      +      + 
    1.4125k    7.751n-+------+------+----a-+------+---b--+------+------+------+-
    1.4158k    7.751n +      +      +    a +      +   b  +      +      +      + 
    1.4191k    7.751n +      +      +    a +      +   b  +      +      +      + 
    1.4223k    7.751n +      +      +    a +      +   b  +      +      +      + 
    1.4256k    7.751n +      +      +    a +      +   b  +      +      +      + 
    1.4289k    7.751n +      +      +    a +      +   b  +      +      +      + 
    1.4322k    7.751n +      +      +    a +      +   b  +      +      +      + 
    1.4355k    7.751n +      +      +    a +      +   b  +      +      +      + 
    1.4388k    7.751n +      +      +    a +      +   b  +      +      +      + 
    1.4421k    7.751n +      +      +    a +      +   b  +      +      +      + 
    1.4454k    7.751n-+------+------+----a-+------+---b--+------+------+------+-
    1.4488k    7.751n +      +      +    a +      +   b  +      +      +      + 
    1.4521k    7.751n +      +      +    a +      +   b  +      +      +      + 
    1.4555k    7.751n +      +      +    a +      +   b  +      +      +      + 
    1.4588k    7.751n +      +      +    a +      +   b  +      +      +      + 
    1.4622k    7.751n +      +      +    a +      +   b  +      +      +      + 
    1.4655k    7.751n +      +      +    a +      +   b  +      +      +      + 
    1.4689k    7.751n +      +      +    a +      +   b  +      +      +      + 
    1.4723k    7.751n +      +      +    a +      +   b  +      +      +      + 
    1.4757k    7.751n +      +      +    a +      +   b  +      +      +      + 
    1.4791k    7.751n-+------+------+----a-+------+---b--+------+------+------+-
    1.4825k    7.751n +      +      +    a +      +   b  +      +      +      + 
    1.4859k    7.751n +      +      +    a +      +   b  +      +      +      + 
    1.4894k    7.751n +      +      +    a +      +   b  +      +      +      + 
    1.4928k    7.751n +      +      +    a +      +   b  +      +      +      + 
    1.4962k    7.751n +      +      +    a +      +   b  +      +      +      + 
    1.4997k    7.751n +      +      +    a +      +   b  +      +      +      + 
    1.5031k    7.751n +      +      +    a +      +   b  +      +      +      + 
    1.5066k    7.751n +      +      +    a +      +   b  +      +      +      + 
    1.5101k    7.751n +      +      +    a +      +   b  +      +      +      + 
    1.5136k    7.751n-+------+------+----a-+------+---b--+------+------+------+-
    1.5171k    7.751n +      +      +    a +      +   b  +      +      +      + 
    1.5205k    7.751n +      +      +    a +      +   b  +      +      +      + 
    1.5241k    7.751n +      +      +    a +      +   b  +      +      +      + 
    1.5276k    7.751n +      +      +    a +      +   b  +      +      +      + 
    1.5311k    7.751n +      +      +    a +      +   b  +      +      +      + 
    1.5346k    7.751n +      +      +    a +      +   b  +      +      +      + 
    1.5382k    7.751n +      +      +    a +      +   b  +      +      +      + 
    1.5417k    7.751n +      +      +    a +      +   b  +      +      +      + 
    1.5453k    7.751n +      +      +    a +      +   b  +      +      +      + 
    1.5488k    7.751n-+------+------+----a-+------+---b--+------+------+------+-
    1.5524k    7.751n +      +      +    a +      +   b  +      +      +      + 
    1.5560k    7.751n +      +      +    a +      +   b  +      +      +      + 
    1.5596k    7.751n +      +      +    a +      +   b  +      +      +      + 
    1.5631k    7.751n +      +      +    a +      +   b  +      +      +      + 
    1.5668k    7.751n +      +      +    a +      +   b  +      +      +      + 
    1.5704k    7.751n +      +      +    a +      +   b  +      +      +      + 
    1.5740k    7.751n +      +      +    a +      +   b  +      +      +      + 
    1.5776k    7.751n +      +      +    a +      +   b  +      +      +      + 
    1.5812k    7.751n +      +      +    a +      +   b  +      +      +      + 
    1.5849k    7.751n-+------+------+----a-+------+---b--+------+------+------+-
    1.5885k    7.751n +      +      +    a +      +   b  +      +      +      + 
    1.5922k    7.751n +      +      +    a +      +   b  +      +      +      + 
    1.5959k    7.751n +      +      +    a +      +   b  +      +      +      + 
    1.5996k    7.751n +      +      +    a +      +   b  +      +      +      + 
    1.6032k    7.751n +      +      +    a +      +   b  +      +      +      + 
    1.6069k    7.751n +      +      +    a +      +   b  +      +      +      + 
    1.6106k    7.751n +      +      +    a +      +   b  +      +      +      + 
    1.6144k    7.751n +      +      +    a +      +   b  +      +      +      + 
    1.6181k    7.751n +      +      +    a +      +   b  +      +      +      + 
    1.6218k    7.751n-+------+------+----a-+------+---b--+------+------+------+-
    1.6255k    7.751n +      +      +    a +      +   b  +      +      +      + 
    1.6293k    7.751n +      +      +    a +      +   b  +      +      +      + 
    1.6331k    7.751n +      +      +    a +      +   b  +      +      +      + 
    1.6368k    7.751n +      +      +    a +      +   b  +      +      +      + 
    1.6406k    7.751n +      +      +    a +      +   b  +      +      +      + 
    1.6444k    7.751n +      +      +    a +      +   b  +      +      +      + 
    1.6482k    7.751n +      +      +    a +      +   b  +      +      +      + 
    1.6520k    7.751n +      +      +    a +      +   b  +      +      +      + 
    1.6558k    7.751n +      +      +    a +      +   b  +      +      +      + 
    1.6596k    7.751n-+------+------+----a-+------+---b--+------+------+------+-
    1.6634k    7.751n +      +      +    a +      +   b  +      +      +      + 
    1.6672k    7.751n +      +      +    a +      +   b  +      +      +      + 
    1.6711k    7.751n +      +      +    a +      +   b  +      +      +      + 
    1.6749k    7.751n +      +      +    a +      +   b  +      +      +      + 
    1.6788k    7.751n +      +      +    a +      +   b  +      +      +      + 
    1.6827k    7.751n +      +      +    a +      +   b  +      +      +      + 
    1.6866k    7.751n +      +      +    a +      +   b  +      +      +      + 
    1.6904k    7.751n +      +      +    a +      +   b  +      +      +      + 
    1.6943k    7.751n +      +      +    a +      +   b  +      +      +      + 
    1.6982k    7.751n-+------+------+----a-+------+---b--+------+------+------+-
    1.7022k    7.751n +      +      +    a +      +   b  +      +      +      + 
    1.7061k    7.751n +      +      +    a +      +   b  +      +      +      + 
    1.7100k    7.751n +      +      +    a +      +   b  +      +      +      + 
    1.7140k    7.751n +      +      +    a +      +   b  +      +      +      + 
    1.7179k    7.751n +      +      +    a +      +   b  +      +      +      + 
    1.7219k    7.751n +      +      +    a +      +   b  +      +      +      + 
    1.7258k    7.751n +      +      +    a +      +   b  +      +      +      + 
    1.7298k    7.751n +      +      +    a +      +   b  +      +      +      + 
    1.7338k    7.751n +      +      +    a +      +   b  +      +      +      + 
    1.7378k    7.751n-+------+------+----a-+------+---b--+------+------+------+-
    1.7418k    7.751n +      +      +    a +      +   b  +      +      +      + 
    1.7458k    7.751n +      +      +    a +      +   b  +      +      +      + 
    1.7498k    7.751n +      +      +    a +      +   b  +      +      +      + 
    1.7539k    7.751n +      +      +    a +      +   b  +      +      +      + 
    1.7579k    7.751n +      +      +    a +      +   b  +      +      +      + 
    1.7620k    7.751n +      +      +    a +      +   b  +      +      +      + 
    1.7660k    7.751n +      +      +    a +      +   b  +      +      +      + 
    1.7701k    7.751n +      +      +    a +      +   b  +      +      +      + 
    1.7742k    7.751n +      +      +    a +      +   b  +      +      +      + 
    1.7783k    7.751n-+------+------+----a-+------+---b--+------+------+------+-
    1.7824k    7.751n +      +      +    a +      +   b  +      +      +      + 
    1.7865k    7.751n +      +      +    a +      +   b  +      +      +      + 
    1.7906k    7.751n +      +      +    a +      +   b  +      +      +      + 
    1.7947k    7.751n +      +      +    a +      +   b  +      +      +      + 
    1.7989k    7.751n +      +      +    a +      +   b  +      +      +      + 
    1.8030k    7.751n +      +      +    a +      +   b  +      +      +      + 
    1.8072k    7.751n +      +      +    a +      +   b  +      +      +      + 
    1.8113k    7.751n +      +      +    a +      +   b  +      +      +      + 
    1.8155k    7.751n +      +      +    a +      +   b  +      +      +      + 
    1.8197k    7.751n-+------+------+----a-+------+---b--+------+------+------+-
    1.8239k    7.751n +      +      +    a +      +   b  +      +      +      + 
    1.8281k    7.751n +      +      +    a +      +   b  +      +      +      + 
    1.8323k    7.751n +      +      +    a +      +   b  +      +      +      + 
    1.8365k    7.751n +      +      +    a +      +   b  +      +      +      + 
    1.8408k    7.751n +      +      +    a +      +   b  +      +      +      + 
    1.8450k    7.751n +      +      +    a +      +   b  +      +      +      + 
    1.8493k    7.751n +      +      +    a +      +   b  +      +      +      + 
    1.8535k    7.751n +      +      +    a +      +   b  +      +      +      + 
    1.8578k    7.751n +      +      +    a +      +   b  +      +      +      + 
    1.8621k    7.751n-+------+------+----a-+------+---b--+------+------+------+-
    1.8664k    7.751n +      +      +    a +      +   b  +      +      +      + 
    1.8707k    7.751n +      +      +    a +      +   b  +      +      +      + 
    1.8750k    7.751n +      +      +    a +      +   b  +      +      +      + 
    1.8793k    7.751n +      +      +    a +      +   b  +      +      +      + 
    1.8836k    7.751n +      +      +    a +      +   b  +      +      +      + 
    1.8880k    7.751n +      +      +    a +      +   b  +      +      +      + 
    1.8923k    7.751n +      +      +    a +      +   b  +      +      +      + 
    1.8967k    7.751n +      +      +    a +      +   b  +      +      +      + 
    1.9011k    7.751n +      +      +    a +      +   b  +      +      +      + 
    1.9055k    7.751n-+------+------+----a-+------+---b--+------+------+------+-
    1.9099k    7.751n +      +      +    a +      +   b  +      +      +      + 
    1.9143k    7.751n +      +      +    a +      +   b  +      +      +      + 
    1.9187k    7.751n +      +      +    a +      +   b  +      +      +      + 
    1.9231k    7.751n +      +      +    a +      +   b  +      +      +      + 
    1.9275k    7.751n +      +      +    a +      +   b  +      +      +      + 
    1.9320k    7.751n +      +      +    a +      +   b  +      +      +      + 
    1.9364k    7.751n +      +      +    a +      +   b  +      +      +      + 
    1.9409k    7.751n +      +      +    a +      +   b  +      +      +      + 
    1.9454k    7.751n +      +      +    a +      +   b  +      +      +      + 
    1.9498k    7.751n-+------+------+----a-+------+---b--+------+------+------+-
    1.9543k    7.751n +      +      +    a +      +   b  +      +      +      + 
    1.9588k    7.751n +      +      +    a +      +   b  +      +      +      + 
    1.9634k    7.751n +      +      +    a +      +   b  +      +      +      + 
    1.9679k    7.751n +      +      +    a +      +   b  +      +      +      + 
    1.9724k    7.751n +      +      +    a +      +   b  +      +      +      + 
    1.9770k    7.751n +      +      +    a +      +   b  +      +      +      + 
    1.9815k    7.751n +      +      +    a +      +   b  +      +      +      + 
    1.9861k    7.751n +      +      +    a +      +   b  +      +      +      + 
    1.9907k    7.751n +      +      +    a +      +   b  +      +      +      + 
    1.9953k    7.751n-+------+------+----a-+------+---b--+------+------+------+-
    1.9999k    7.751n +      +      +    a +      +   b  +      +      +      + 
    2.0045k    7.751n +      +      +    a +      +   b  +      +      +      + 
    2.0091k    7.751n +      +      +    a +      +   b  +      +      +      + 
    2.0137k    7.751n +      +      +    a +      +   b  +      +      +      + 
    2.0184k    7.751n +      +      +    a +      +   b  +      +      +      + 
    2.0230k    7.751n +      +      +    a +      +   b  +      +      +      + 
    2.0277k    7.751n +      +      +    a +      +   b  +      +      +      + 
    2.0324k    7.751n +      +      +    a +      +   b  +      +      +      + 
    2.0370k    7.751n +      +      +    a +      +   b  +      +      +      + 
    2.0417k    7.751n-+------+------+----a-+------+---b--+------+------+------+-
    2.0464k    7.751n +      +      +    a +      +   b  +      +      +      + 
    2.0512k    7.751n +      +      +    a +      +   b  +      +      +      + 
    2.0559k    7.751n +      +      +    a +      +   b  +      +      +      + 
    2.0606k    7.751n +      +      +    a +      +   b  +      +      +      + 
    2.0654k    7.751n +      +      +    a +      +   b  +      +      +      + 
    2.0701k    7.751n +      +      +    a +      +   b  +      +      +      + 
    2.0749k    7.751n +      +      +    a +      +   b  +      +      +      + 
    2.0797k    7.751n +      +      +    a +      +   b  +      +      +      + 
    2.0845k    7.751n +      +      +    a +      +   b  +      +      +      + 
    2.0893k    7.751n-+------+------+----a-+------+---b--+------+------+------+-
    2.0941k    7.751n +      +      +    a +      +   b  +      +      +      + 
    2.0989k    7.751n +      +      +    a +      +   b  +      +      +      + 
    2.1038k    7.751n +      +      +    a +      +   b  +      +      +      + 
    2.1086k    7.751n +      +      +    a +      +   b  +      +      +      + 
    2.1135k    7.751n +      +      +    a +      +   b  +      +      +      + 
    2.1184k    7.751n +      +      +    a +      +   b  +      +      +      + 
    2.1232k    7.751n +      +      +    a +      +   b  +      +      +      + 
    2.1281k    7.751n +      +      +    a +      +   b  +      +      +      + 
    2.1330k    7.751n +      +      +    a +      +   b  +      +      +      + 
    2.1380k    7.751n-+------+------+----a-+------+---b--+------+------+------+-
    2.1429k    7.751n +      +      +    a +      +   b  +      +      +      + 
    2.1478k    7.751n +      +      +    a +      +   b  +      +      +      + 
    2.1528k    7.751n +      +      +    a +      +   b  +      +      +      + 
    2.1577k    7.751n +      +      +    a +      +   b  +      +      +      + 
    2.1627k    7.751n +      +      +    a +      +   b  +      +      +      + 
    2.1677k    7.751n +      +      +    a +      +   b  +      +      +      + 
    2.1727k    7.751n +      +      +    a +      +   b  +      +      +      + 
    2.1777k    7.751n +      +      +    a +      +   b  +      +      +      + 
    2.1827k    7.751n +      +      +    a +      +   b  +      +      +      + 
    2.1878k    7.751n-+------+------+----a-+------+---b--+------+------+------+-
    2.1928k    7.751n +      +      +    a +      +   b  +      +      +      + 
    2.1979k    7.751n +      +      +    a +      +   b  +      +      +      + 
    2.2029k    7.751n +      +      +    a +      +   b  +      +      +      + 
    2.2080k    7.751n +      +      +    a +      +   b  +      +      +      + 
    2.2131k    7.751n +      +      +    a +      +   b  +      +      +      + 
    2.2182k    7.751n +      +      +    a +      +   b  +      +      +      + 
    2.2233k    7.751n +      +      +    a +      +   b  +      +      +      + 
    2.2284k    7.751n +      +      +    a +      +   b  +      +      +      + 
    2.2336k    7.751n +      +      +    a +      +   b  +      +      +      + 
    2.2387k    7.751n-+------+------+----a-+------+---b--+------+------+------+-
    2.2439k    7.751n +      +      +    a +      +   b  +      +      +      + 
    2.2491k    7.751n +      +      +    a +      +   b  +      +      +      + 
    2.2542k    7.751n +      +      +    a +      +   b  +      +      +      + 
    2.2594k    7.751n +      +      +    a +      +   b  +      +      +      + 
    2.2646k    7.751n +      +      +    a +      +   b  +      +      +      + 
    2.2699k    7.751n +      +      +    a +      +   b  +      +      +      + 
    2.2751k    7.751n +      +      +    a +      +   b  +      +      +      + 
    2.2803k    7.751n +      +      +    a +      +   b  +      +      +      + 
    2.2856k    7.751n +      +      +    a +      +   b  +      +      +      + 
    2.2909k    7.751n-+------+------+----a-+------+---b--+------+------+------+-
    2.2961k    7.751n +      +      +    a +      +   b  +      +      +      + 
    2.3014k    7.751n +      +      +    a +      +   b  +      +      +      + 
    2.3067k    7.751n +      +      +    a +      +   b  +      +      +      + 
    2.3121k    7.751n +      +      +    a +      +   b  +      +      +      + 
    2.3174k    7.751n +      +      +    a +      +   b  +      +      +      + 
    2.3227k    7.751n +      +      +    a +      +   b  +      +      +      + 
    2.3281k    7.751n +      +      +    a +      +   b  +      +      +      + 
    2.3335k    7.751n +      +      +    a +      +   b  +      +      +      + 
    2.3388k    7.751n +      +      +    a +      +   b  +      +      +      + 
    2.3442k    7.751n-+------+------+----a-+------+---b--+------+------+------+-
    2.3496k    7.751n +      +      +    a +      +   b  +      +      +      + 
    2.3550k    7.751n +      +      +    a +      +   b  +      +      +      + 
    2.3605k    7.751n +      +      +    a +      +   b  +      +      +      + 
    2.3659k    7.751n +      +      +    a +      +   b  +      +      +      + 
    2.3714k    7.751n +      +      +    a +      +   b  +      +      +      + 
    2.3768k    7.751n +      +      +    a +      +   b  +      +      +      + 
    2.3823k    7.751n +      +      +    a +      +   b  +      +      +      + 
    2.3878k    7.751n +      +      +    a +      +   b  +      +      +      + 
    2.3933k    7.751n +      +      +    a +      +   b  +      +      +      + 
    2.3988k    7.751n-+------+------+----a-+------+---b--+------+------+------+-
    2.4044k    7.751n +      +      +    a +      +   b  +      +      +      + 
    2.4099k    7.751n +      +      +    a +      +   b  +      +      +      + 
    2.4155k    7.751n +      +      +    a +      +   b  +      +      +      + 
    2.4210k    7.751n +      +      +    a +      +   b  +      +      +      + 
    2.4266k    7.751n +      +      +    a +      +   b  +      +      +      + 
    2.4322k    7.751n +      +      +    a +      +   b  +      +      +      + 
    2.4378k    7.751n +      +      +    a +      +   b  +      +      +      + 
    2.4434k    7.751n +      +      +    a +      +   b  +      +      +      + 
    2.4491k    7.751n +      +      +    a +      +   b  +      +      +      + 
    2.4547k    7.751n-+------+------+----a-+------+---b--+------+------+------+-
    2.4604k    7.751n +      +      +    a +      +   b  +      +      +      + 
    2.4660k    7.751n +      +      +    a +      +   b  +      +      +      + 
    2.4717k    7.751n +      +      +    a +      +   b  +      +      +      + 
    2.4774k    7.751n +      +      +    a +      +   b  +      +      +      + 
    2.4831k    7.751n +      +      +    a +      +   b  +      +      +      + 
    2.4889k    7.751n +      +      +    a +      +   b  +      +      +      + 
    2.4946k    7.751n +      +      +    a +      +   b  +      +      +      + 
    2.5003k    7.751n +      +      +    a +      +   b  +      +      +      + 
    2.5061k    7.751n +      +      +    a +      +   b  +      +      +      + 
    2.5119k    7.751n-+------+------+----a-+------+---b--+------+------+------+-
    2.5177k    7.751n +      +      +    a +      +   b  +      +      +      + 
    2.5235k    7.751n +      +      +    a +      +   b  +      +      +      + 
    2.5293k    7.751n +      +      +    a +      +   b  +      +      +      + 
    2.5351k    7.751n +      +      +    a +      +   b  +      +      +      + 
    2.5410k    7.751n +      +      +    a +      +   b  +      +      +      + 
    2.5468k    7.751n +      +      +    a +      +   b  +      +      +      + 
    2.5527k    7.751n +      +      +    a +      +   b  +      +      +      + 
    2.5586k    7.751n +      +      +    a +      +   b  +      +      +      + 
    2.5645k    7.751n +      +      +    a +      +   b  +      +      +      + 
    2.5704k    7.751n-+------+------+----a-+------+---b--+------+------+------+-
    2.5763k    7.751n +      +      +    a +      +   b  +      +      +      + 
    2.5823k    7.751n +      +      +    a +      +   b  +      +      +      + 
    2.5882k    7.751n +      +      +    a +      +   b  +      +      +      + 
    2.5942k    7.751n +      +      +    a +      +   b  +      +      +      + 
    2.6002k    7.751n +      +      +    a +      +   b  +      +      +      + 
    2.6062k    7.751n +      +      +    a +      +   b  +      +      +      + 
    2.6122k    7.751n +      +      +    a +      +   b  +      +      +      + 
    2.6182k    7.751n +      +      +    a +      +   b  +      +      +      + 
[...]
  601.1737k    7.751n +      b      +    a +      +      +      +      +      + 
  602.5596k    7.751n-+------b------+----a-+------+------+------+------+------+-
  603.9486k    7.751n +      b      +    a +      +      +      +      +      + 
  605.3409k    7.751n +      b      +    a +      +      +      +      +      + 
  606.7363k    7.751n +      b      +    a +      +      +      +      +      + 
  608.1350k    7.751n +      b      +    a +      +      +      +      +      + 
  609.5369k    7.751n +      b      +    a +      +      +      +      +      + 
  610.9420k    7.751n +      b      +    a +      +      +      +      +      + 
  612.3504k    7.751n +      b      +    a +      +      +      +      +      + 
  613.7620k    7.751n +      b      +    a +      +      +      +      +      + 
  615.1769k    7.751n +      b      +    a +      +      +      +      +      + 
  616.5950k    7.751n-+------b------+----a-+------+------+------+------+------+-
  618.0164k    7.751n +      b      +    a +      +      +      +      +      + 
  619.4411k    7.751n +      b      +    a +      +      +      +      +      + 
  620.8690k    7.751n +      b      +    a +      +      +      +      +      + 
  622.3003k    7.751n +      b      +    a +      +      +      +      +      + 
  623.7348k    7.751n +      b      +    a +      +      +      +      +      + 
  625.1727k    7.751n +      b      +    a +      +      +      +      +      + 
  626.6139k    7.751n +      b      +    a +      +      +      +      +      + 
  628.0584k    7.751n +      b      +    a +      +      +      +      +      + 
  629.5062k    7.751n +      b      +    a +      +      +      +      +      + 
  630.9573k    7.751n-+------b------+----a-+------+------+------+------+------+-
  632.4119k    7.751n +      b      +    a +      +      +      +      +      + 
  633.8697k    7.751n +      b      +    a +      +      +      +      +      + 
  635.3309k    7.751n +      b      +    a +      +      +      +      +      + 
  636.7955k    7.751n +      b      +    a +      +      +      +      +      + 
  638.2635k    7.751n +      b      +    a +      +      +      +      +      + 
  639.7348k    7.751n +      b      +    a +      +      +      +      +      + 
  641.2096k    7.751n +      b      +    a +      +      +      +      +      + 
  642.6877k    7.751n +      b      +    a +      +      +      +      +      + 
  644.1693k    7.751n +      b      +    a +      +      +      +      +      + 
  645.6542k    7.751n-+------b------+----a-+------+------+------+------+------+-
  647.1426k    7.751n +      b      +    a +      +      +      +      +      + 
  648.6344k    7.751n +      b      +    a +      +      +      +      +      + 
  650.1297k    7.751n +      b      +    a +      +      +      +      +      + 
  651.6284k    7.751n +      b      +    a +      +      +      +      +      + 
  653.1306k    7.751n +      b      +    a +      +      +      +      +      + 
  654.6362k    7.751n +      b      +    a +      +      +      +      +      + 
  656.1453k    7.751n +      b      +    a +      +      +      +      +      + 
  657.6578k    7.751n +      b      +    a +      +      +      +      +      + 
  659.1739k    7.751n +      b      +    a +      +      +      +      +      + 
  660.6934k    7.751n-+------b------+----a-+------+------+------+------+------+-
  662.2165k    7.751n +      b      +    a +      +      +      +      +      + 
  663.7431k    7.751n +      b      +    a +      +      +      +      +      + 
  665.2732k    7.751n +      b      +    a +      +      +      +      +      + 
  666.8068k    7.751n +      b      +    a +      +      +      +      +      + 
  668.3439k    7.751n +      b      +    a +      +      +      +      +      + 
  669.8846k    7.751n +      b      +    a +      +      +      +      +      + 
  671.4289k    7.751n +      b      +    a +      +      +      +      +      + 
  672.9767k    7.751n +      b      +    a +      +      +      +      +      + 
  674.5280k    7.751n +      b      +    a +      +      +      +      +      + 
  676.0830k    7.751n-+------b------+----a-+------+------+------+------+------+-
  677.6415k    7.751n +      b      +    a +      +      +      +      +      + 
  679.2036k    7.751n +      b      +    a +      +      +      +      +      + 
  680.7694k    7.751n +      b      +    a +      +      +      +      +      + 
  682.3387k    7.751n +      b      +    a +      +      +      +      +      + 
  683.9116k    7.751n +      b      +    a +      +      +      +      +      + 
  685.4882k    7.751n +      b      +    a +      +      +      +      +      + 
  687.0684k    7.751n +      b      +    a +      +      +      +      +      + 
  688.6523k    7.751n +      b      +    a +      +      +      +      +      + 
  690.2398k    7.751n +      b      +    a +      +      +      +      +      + 
  691.8310k    7.751n-+------b------+----a-+------+------+------+------+------+-
  693.4258k    7.751n +      b      +    a +      +      +      +      +      + 
  695.0243k    7.751n +      b      +    a +      +      +      +      +      + 
  696.6265k    7.751n +      b      +    a +      +      +      +      +      + 
  698.2324k    7.751n +      b      +    a +      +      +      +      +      + 
  699.8420k    7.751n +     b+      +    a +      +      +      +      +      + 
  701.4553k    7.751n +     b+      +    a +      +      +      +      +      + 
  703.0723k    7.751n +     b+      +    a +      +      +      +      +      + 
  704.6931k    7.751n +     b+      +    a +      +      +      +      +      + 
  706.3176k    7.751n +     b+      +    a +      +      +      +      +      + 
  707.9458k    7.751n-+-----b+------+----a-+------+------+------+------+------+-
  709.5778k    7.751n +     b+      +    a +      +      +      +      +      + 
  711.2135k    7.751n +     b+      +    a +      +      +      +      +      + 
  712.8530k    7.751n +     b+      +    a +      +      +      +      +      + 
  714.4963k    7.751n +     b+      +    a +      +      +      +      +      + 
  716.1434k    7.751n +     b+      +    a +      +      +      +      +      + 
  717.7943k    7.751n +     b+      +    a +      +      +      +      +      + 
  719.4490k    7.751n +     b+      +    a +      +      +      +      +      + 
  721.1075k    7.751n +     b+      +    a +      +      +      +      +      + 
  722.7698k    7.751n +     b+      +    a +      +      +      +      +      + 
  724.4360k    7.751n-+-----b+------+----a-+------+------+------+------+------+-
  726.1060k    7.751n +     b+      +    a +      +      +      +      +      + 
  727.7798k    7.751n +     b+      +    a +      +      +      +      +      + 
  729.4575k    7.751n +     b+      +    a +      +      +      +      +      + 
  731.1391k    7.751n +     b+      +    a +      +      +      +      +      + 
  732.8245k    7.751n +     b+      +    a +      +      +      +      +      + 
  734.5139k    7.751n +     b+      +    a +      +      +      +      +      + 
  736.2071k    7.751n +     b+      +    a +      +      +      +      +      + 
  737.9042k    7.751n +     b+      +    a +      +      +      +      +      + 
  739.6053k    7.751n +     b+      +    a +      +      +      +      +      + 
  741.3102k    7.751n-+-----b+------+----a-+------+------+------+------+------+-
  743.0191k    7.751n +     b+      +    a +      +      +      +      +      + 
  744.7320k    7.751n +     b+      +    a +      +      +      +      +      + 
  746.4488k    7.751n +     b+      +    a +      +      +      +      +      + 
  748.1695k    7.751n +     b+      +    a +      +      +      +      +      + 
  749.8942k    7.751n +     b+      +    a +      +      +      +      +      + 
  751.6229k    7.751n +     b+      +    a +      +      +      +      +      + 
  753.3556k    7.751n +     b+      +    a +      +      +      +      +      + 
  755.0922k    7.751n +     b+      +    a +      +      +      +      +      + 
  756.8329k    7.751n +     b+      +    a +      +      +      +      +      + 
  758.5776k    7.751n-+-----b+------+----a-+------+------+------+------+------+-
  760.3263k    7.751n +     b+      +    a +      +      +      +      +      + 
  762.0790k    7.751n +     b+      +    a +      +      +      +      +      + 
  763.8358k    7.751n +     b+      +    a +      +      +      +      +      + 
  765.5966k    7.751n +     b+      +    a +      +      +      +      +      + 
  767.3615k    7.751n +     b+      +    a +      +      +      +      +      + 
  769.1304k    7.751n +     b+      +    a +      +      +      +      +      + 
  770.9035k    7.751n +     b+      +    a +      +      +      +      +      + 
  772.6806k    7.751n +     b+      +    a +      +      +      +      +      + 
  774.4618k    7.751n +     b+      +    a +      +      +      +      +      + 
  776.2471k    7.751n-+-----b+------+----a-+------+------+------+------+------+-
  778.0366k    7.751n +     b+      +    a +      +      +      +      +      + 
  779.8301k    7.751n +     b+      +    a +      +      +      +      +      + 
  781.6278k    7.751n +     b+      +    a +      +      +      +      +      + 
  783.4296k    7.751n +     b+      +    a +      +      +      +      +      + 
  785.2356k    7.751n +     b+      +    a +      +      +      +      +      + 
  787.0458k    7.751n +     b+      +    a +      +      +      +      +      + 
  788.8601k    7.751n +     b+      +    a +      +      +      +      +      + 
  790.6786k    7.751n +     b+      +    a +      +      +      +      +      + 
  792.5013k    7.751n +     b+      +    a +      +      +      +      +      + 
  794.3282k    7.751n-+-----b+------+----a-+------+------+------+------+------+-
  796.1594k    7.751n +     b+      +    a +      +      +      +      +      + 
  797.9947k    7.751n +     b+      +    a +      +      +      +      +      + 
  799.8343k    7.751n +     b+      +    a +      +      +      +      +      + 
  801.6781k    7.751n +     b+      +    a +      +      +      +      +      + 
  803.5261k    7.751n +     b+      +    a +      +      +      +      +      + 
  805.3784k    7.751n +     b+      +    a +      +      +      +      +      + 
  807.2350k    7.751n +     b+      +    a +      +      +      +      +      + 
  809.0959k    7.751n +     b+      +    a +      +      +      +      +      + 
  810.9611k    7.751n +     b+      +    a +      +      +      +      +      + 
  812.8305k    7.751n-+-----b+------+----a-+------+------+------+------+------+-
  814.7043k    7.751n +     b+      +    a +      +      +      +      +      + 
  816.5824k    7.751n +     b+      +    a +      +      +      +      +      + 
  818.4648k    7.751n +     b+      +    a +      +      +      +      +      + 
  820.3515k    7.751n +     b+      +    a +      +      +      +      +      + 
  822.2426k    7.751n +     b+      +    a +      +      +      +      +      + 
  824.1381k    7.751n +     b+      +    a +      +      +      +      +      + 
  826.0379k    7.751n +    b +      +    a +      +      +      +      +      + 
  827.9422k    7.751n +    b +      +    a +      +      +      +      +      + 
  829.8508k    7.751n +    b +      +    a +      +      +      +      +      + 
  831.7638k    7.751n-+----b-+------+----a-+------+------+------+------+------+-
  833.6812k    7.751n +    b +      +    a +      +      +      +      +      + 
  835.6030k    7.751n +    b +      +    a +      +      +      +      +      + 
  837.5293k    7.751n +    b +      +    a +      +      +      +      +      + 
  839.4600k    7.751n +    b +      +    a +      +      +      +      +      + 
  841.3951k    7.751n +    b +      +    a +      +      +      +      +      + 
  843.3348k    7.751n +    b +      +    a +      +      +      +      +      + 
  845.2788k    7.751n +    b +      +    a +      +      +      +      +      + 
  847.2274k    7.751n +    b +      +    a +      +      +      +      +      + 
  849.1805k    7.751n +    b +      +    a +      +      +      +      +      + 
  851.1380k    7.751n-+----b-+------+----a-+------+------+------+------+------+-
  853.1001k    7.751n +    b +      +    a +      +      +      +      +      + 
  855.0667k    7.751n +    b +      +    a +      +      +      +      +      + 
  857.0378k    7.751n +    b +      +    a +      +      +      +      +      + 
  859.0135k    7.751n +    b +      +    a +      +      +      +      +      + 
  860.9938k    7.751n +    b +      +    a +      +      +      +      +      + 
  862.9785k    7.751n +    b +      +    a +      +      +      +      +      + 
  864.9679k    7.751n +    b +      +    a +      +      +      +      +      + 
  866.9619k    7.751n +    b +      +    a +      +      +      +      +      + 
  868.9604k    7.751n +    b +      +    a +      +      +      +      +      + 
  870.9636k    7.751n-+----b-+------+----a-+------+------+------+------+------+-
  872.9714k    7.751n +    b +      +    a +      +      +      +      +      + 
  874.9838k    7.751n +    b +      +    a +      +      +      +      +      + 
  877.0008k    7.751n +    b +      +    a +      +      +      +      +      + 
  879.0225k    7.751n +    b +      +    a +      +      +      +      +      + 
  881.0489k    7.751n +    b +      +    a +      +      +      +      +      + 
  883.0799k    7.751n +    b +      +    a +      +      +      +      +      + 
  885.1156k    7.751n +    b +      +    a +      +      +      +      +      + 
  887.1560k    7.751n +    b +      +    a +      +      +      +      +      + 
  889.2011k    7.751n +    b +      +    a +      +      +      +      +      + 
  891.2509k    7.751n-+----b-+------+----a-+------+------+------+------+------+-
  893.3055k    7.751n +    b +      +    a +      +      +      +      +      + 
  895.3648k    7.751n +    b +      +    a +      +      +      +      +      + 
  897.4288k    7.751n +    b +      +    a +      +      +      +      +      + 
  899.4976k    7.751n +    b +      +    a +      +      +      +      +      + 
  901.5711k    7.751n +    b +      +    a +      +      +      +      +      + 
  903.6495k    7.751n +    b +      +    a +      +      +      +      +      + 
  905.7326k    7.751n +    b +      +    a +      +      +      +      +      + 
  907.8205k    7.751n +    b +      +    a +      +      +      +      +      + 
  909.9133k    7.751n +    b +      +    a +      +      +      +      +      + 
  912.0108k    7.751n-+----b-+------+----a-+------+------+------+------+------+-
  914.1132k    7.751n +    b +      +    a +      +      +      +      +      + 
  916.2205k    7.751n +    b +      +    a +      +      +      +      +      + 
  918.3326k    7.751n +    b +      +    a +      +      +      +      +      + 
  920.4496k    7.751n +    b +      +    a +      +      +      +      +      + 
  922.5714k    7.751n +    b +      +    a +      +      +      +      +      + 
  924.6982k    7.751n +    b +      +    a +      +      +      +      +      + 
  926.8298k    7.751n +    b +      +    a +      +      +      +      +      + 
  928.9664k    7.751n +    b +      +    a +      +      +      +      +      + 
  931.1079k    7.751n +    b +      +    a +      +      +      +      +      + 
  933.2543k    7.751n-+----b-+------+----a-+------+------+------+------+------+-
  935.4057k    7.751n +    b +      +    a +      +      +      +      +      + 
  937.5620k    7.751n +    b +      +    a +      +      +      +      +      + 
  939.7233k    7.751n +    b +      +    a +      +      +      +      +      + 
  941.8896k    7.751n +    b +      +    a +      +      +      +      +      + 
  944.0609k    7.751n +    b +      +    a +      +      +      +      +      + 
  946.2372k    7.751n +    b +      +    a +      +      +      +      +      + 
  948.4185k    7.751n +    b +      +    a +      +      +      +      +      + 
  950.6048k    7.751n +    b +      +    a +      +      +      +      +      + 
  952.7962k    7.751n +    b +      +    a +      +      +      +      +      + 
  954.9926k    7.751n-+----b-+------+----a-+------+------+------+------+------+-
  957.1941k    7.751n +    b +      +    a +      +      +      +      +      + 
  959.4006k    7.751n +    b +      +    a +      +      +      +      +      + 
  961.6123k    7.751n +    b +      +    a +      +      +      +      +      + 
  963.8290k    7.751n +    b +      +    a +      +      +      +      +      + 
  966.0509k    7.751n +    b +      +    a +      +      +      +      +      + 
  968.2779k    7.751n +    b +      +    a +      +      +      +      +      + 
  970.5100k    7.751n +    b +      +    a +      +      +      +      +      + 
  972.7472k    7.751n +   b  +      +    a +      +      +      +      +      + 
  974.9896k    7.751n +   b  +      +    a +      +      +      +      +      + 
  977.2372k    7.751n-+---b--+------+----a-+------+------+------+------+------+-
  979.4900k    7.751n +   b  +      +    a +      +      +      +      +      + 
  981.7479k    7.751n +   b  +      +    a +      +      +      +      +      + 
  984.0111k    7.751n +   b  +      +    a +      +      +      +      +      + 
  986.2795k    7.751n +   b  +      +    a +      +      +      +      +      + 
  988.5531k    7.751n +   b  +      +    a +      +      +      +      +      + 
  990.8319k    7.751n +   b  +      +    a +      +      +      +      +      + 
  993.1160k    7.751n +   b  +      +    a +      +      +      +      +      + 
  995.4054k    7.751n +   b  +      +    a +      +      +      +      +      + 
  997.7001k    7.751n +   b  +      +    a +      +      +      +      +      + 
    1.0000x    7.751n-+---b--+------+----a-+------+------+------+------+------+-
                      +             +             +             +             + 

b


          ***** job concluded
1****** HSPICE -- F-2011.09 64-BIT (Sep  5 2011) linux ******                   
 ******  
 * eesm5120 amplifier design

  ******  job statistics summary tnom=  25.000 temp=  25.000 *****
  
  
 ******  Machine Information  ******
 CPU:
 model name	: Intel(R) Xeon(R) CPU E5-2690 0 @ 2.90GHz
 cpu MHz	: 2900.000
  
 OS:
 Linux version 2.6.32-754.28.1.el6.x86_64 (mockbuild@x86-02.bsys.centos.org) (gc
 c version 4.4.7 20120313 (Red Hat 4.4.7-23) (GCC) ) #1 SMP Wed Mar 11 18:38:45 
 UTC 2020


  ******  HSPICE Threads Information  ******

  Command Line Threads Count :     1
  Available CPU Count        :    32
  Actual Threads Count       :     1


  ******  Circuit Statistics  ******
  # nodes       =      29 # elements   =      48
  # resistors   =       0 # capacitors =       2 # inductors   =       0
  # mutual_inds =       0 # vccs       =       0 # vcvs        =       2
  # cccs        =       0 # ccvs       =       0 # volt_srcs   =       5
  # curr_srcs   =       1 # diodes     =       0 # bjts        =       0
  # jfets       =       0 # mosfets    =      38 # U elements  =       0
  # T elements  =       0 # W elements =       0 # B elements  =       0
  # S elements  =       0 # P elements =       0 # va device   =       0
  # vector_srcs =       0


  ******  Runtime Statistics (seconds)  ******

  analysis           time    # points   tot. iter  conv.iter
  op point           0.00           1          37
  ac analysis        0.07        3001        3001
  readin             0.01
  errchk             0.00
  setup              0.00
  output             0.01


           peak memory used        129.48 megabytes
           total cpu time            0.09 seconds
           total elapsed time        0.14 seconds
           job started at     23:12:13 04/07/2021
           job ended   at     23:12:13 04/07/2021


 lic: Release hspice token(s) 
