Using: /usr/bin/time -p /usr/eelocal/synopsys/hspice-vf2011.09/hspice/amd64/hspice opamp_psrr.sp
 ****** HSPICE -- F-2011.09 64-BIT (Sep  5 2011) linux ******                   
  Copyright (C) 2011 Synopsys, Inc. All Rights Reserved.                        
  Unpublished-rights reserved under US copyright laws.
  This program is protected by law and is subject to the
  terms and conditions of the license agreement from Synopsys.
  Use of this program is your acceptance to be bound by the
  license agreement. HSPICE is the trademark of Synopsys, Inc.
  Input File: opamp_psrr.sp                                                     
  Command line options: opamp_psrr.sp
 lic:  
 lic: FLEXlm: v10.8 
 lic: USER:   kslamaf              HOSTNAME: EEX052 
 lic: HOSTID:                      PID:      14907 
 lic: Using FLEXlm license file: 
 lic: 27041@eesvr5.ece.ust.hk 
 lic: Checkout 1 hspice 
 lic: License/Maintenance for hspice will expire on 20-may-2021/2020.12 
 lic: 1(in_use)/25(total) FLOATING license(s) on SERVER eesvr5.ece.ust.hk 
 lic:   
 Init: read install configuration file: /usr/eelocal/synopsys/hspice-vf2011.09/hspice/meta.cfg
1****** HSPICE -- F-2011.09 64-BIT (Sep  5 2011) linux ******                   
 ******  
 * eesm5120 amplifier design

  ******  circuit name directory
 circuit number to circuit name directory
   number circuitname                     definition         multiplier
        0 main circuit
        1 x1.                             folded_cascode_amp
                                                                 1.00 
        2 x1.x1.                          aux_p              1.00 
        3 x1.x2.                          aux_p              1.00 
        4 x1.x3.                          aux_n              1.00 
        5 x1.x4.                          aux_n              1.00 
 

  
      
 **info** set option symb=1 internally to help for convergence.
 *****************************************************************
 ******  option summary
 ******
 runlvl  = 3         bypass  = 2         
  Opening plot unit= 15
 file=opamp_psrr.pa0                                                           





 ****     small-signal transfer characteristics

         vs        input resistance at vs        output resistance at v(vo+,vo-)  v(vo+,vo-)/vs       

      -5.0000m            17.9740k                      26.1971x                 -136.6158p
      -4.9990m            17.9740k                      26.1972x                   79.6085p
      -4.9980m            17.9740k                      26.1972x                   28.1628p
      -4.9970m            17.9740k                      26.1972x                    9.9403p
      -4.9960m            17.9740k                      26.1972x                  -74.4431p
      -4.9950m            17.9740k                      26.1972x                  105.8018p
      -4.9940m            17.9740k                      26.1972x                   32.1989p
      -4.9930m            17.9740k                      26.1972x                   84.2069p
      -4.9920m            17.9740k                      26.1973x                   38.6946p
      -4.9910m            17.9740k                      26.1973x                 -127.8957p
      -4.9900m            17.9740k                      26.1973x                   82.8924p
      -4.9890m            17.9740k                      26.1973x                   64.6636p
      -4.9880m            17.9740k                      26.1973x                  118.0389p
      -4.9870m            17.9740k                      26.1973x                   53.9795p
      -4.9860m            17.9741k                      26.1973x                  -17.5409p
      -4.9850m            17.9741k                      26.1974x                  -28.7828p
      -4.9840m            17.9741k                      26.1974x                  170.8225p
      -4.9830m            17.9741k                      26.1974x                  -93.7856p
      -4.9820m            17.9741k                      26.1974x                   46.7208p
      -4.9810m            17.9741k                      26.1974x                 -160.5236p
      -4.9800m            17.9741k                      26.1974x                 -145.0733p
      -4.9790m            17.9741k                      26.1974x                  147.9330p
      -4.9780m            17.9741k                      26.1975x                   81.4462p
      -4.9770m            17.9741k                      26.1975x                 -146.1855p
      -4.9760m            17.9741k                      26.1975x                 -162.0926f
      -4.9750m            17.9741k                      26.1975x                  -37.1483p
      -4.9740m            17.9741k                      26.1975x                  -47.1663p
      -4.9730m            17.9741k                      26.1975x                   -5.7780p
      -4.9720m            17.9741k                      26.1975x                  -76.5514p
      -4.9710m            17.9741k                      26.1976x                   35.5889p
      -4.9700m            17.9741k                      26.1976x                  -94.2981p
      -4.9690m            17.9741k                      26.1976x                  -32.5429p
      -4.9680m            17.9741k                      26.1976x                   76.0849p
      -4.9670m            17.9741k                      26.1976x                  -94.6527p
      -4.9660m            17.9741k                      26.1976x                  -63.3775p
      -4.9650m            17.9741k                      26.1976x                   51.3207p
      -4.9640m            17.9741k                      26.1977x                   75.5758p
      -4.9630m            17.9741k                      26.1977x                   18.2947p
      -4.9620m            17.9741k                      26.1977x                   55.9126p
      -4.9610m            17.9741k                      26.1977x                 -161.5461p
      -4.9600m            17.9741k                      26.1977x                  253.6082p
      -4.9590m            17.9741k                      26.1977x                 -142.2560p
      -4.9580m            17.9741k                      26.1977x                   60.3269p
      -4.9570m            17.9741k                      26.1978x                  -82.4507p
      -4.9560m            17.9741k                      26.1978x                  -71.9482p
      -4.9550m            17.9741k                      26.1978x                    2.7294p
      -4.9540m            17.9741k                      26.1978x                   -5.2864p
      -4.9530m            17.9741k                      26.1978x                  -16.6374p
      -4.9520m            17.9741k                      26.1978x                  -14.4544p
      -4.9510m            17.9741k                      26.1978x                  -61.6844p
      -4.9500m            17.9741k                      26.1978x                  110.7821p
      -4.9490m            17.9741k                      26.1979x                   94.3914p
      -4.9480m            17.9741k                      26.1979x                 -114.3230p
      -4.9470m            17.9741k                      26.1979x                  -11.2621p
      -4.9460m            17.9741k                      26.1979x                  -52.8466p
      -4.9450m            17.9741k                      26.1979x                    8.4550p
      -4.9440m            17.9741k                      26.1979x                  152.2380p
      -4.9430m            17.9741k                      26.1979x                  -10.0238p
      -4.9420m            17.9741k                      26.1980x                  -23.5405p
      -4.9410m            17.9741k                      26.1980x                  -62.5280p
      -4.9400m            17.9741k                      26.1980x                  102.3241p
      -4.9390m            17.9741k                      26.1980x                   16.8690p
      -4.9380m            17.9741k                      26.1980x                  -67.2273p
      -4.9370m            17.9741k                      26.1980x                   40.0227p
      -4.9360m            17.9741k                      26.1980x                  -19.1522p
      -4.9350m            17.9742k                      26.1981x                   93.0274p
      -4.9340m            17.9742k                      26.1981x                  104.8082p
      -4.9330m            17.9742k                      26.1981x                  -21.1113p
      -4.9320m            17.9742k                      26.1981x                 -222.2065p
      -4.9310m            17.9742k                      26.1981x                  128.0058p
      -4.9300m            17.9742k                      26.1981x                 -114.0223p
      -4.9290m            17.9742k                      26.1981x                   62.8957p
      -4.9280m            17.9742k                      26.1982x                 -160.7909p
      -4.9270m            17.9742k                      26.1982x                   27.8317p
      -4.9260m            17.9742k                      26.1982x                  -51.2927p
      -4.9250m            17.9742k                      26.1982x                   14.9520p
      -4.9240m            17.9742k                      26.1982x                    7.7178p
      -4.9230m            17.9742k                      26.1982x                  -76.2366p
      -4.9220m            17.9742k                      26.1982x                  -15.5722p
      -4.9210m            17.9742k                      26.1983x                  172.9461p
      -4.9200m            17.9742k                      26.1983x                  143.8445p
      -4.9190m            17.9742k                      26.1983x                  131.8481p
      -4.9180m            17.9742k                      26.1983x                   64.7511p
      -4.9170m            17.9742k                      26.1983x                 -215.1201p
      -4.9160m            17.9742k                      26.1983x                    2.2000p
      -4.9150m            17.9742k                      26.1983x                  -14.5775p
      -4.9140m            17.9742k                      26.1984x                  145.4108p
      -4.9130m            17.9742k                      26.1984x                 -138.6611p
      -4.9120m            17.9742k                      26.1984x                 -183.1686p
      -4.9110m            17.9742k                      26.1984x                 -192.1030p
      -4.9100m            17.9742k                      26.1984x                   35.5123p
      -4.9090m            17.9742k                      26.1984x                  -74.6425p
      -4.9080m            17.9742k                      26.1984x                  -44.5901p
      -4.9070m            17.9742k                      26.1984x                    1.3785p
      -4.9060m            17.9742k                      26.1985x                  -25.4408p
      -4.9050m            17.9742k                      26.1985x                  -96.2195p
      -4.9040m            17.9742k                      26.1985x                   96.8139p
      -4.9030m            17.9742k                      26.1985x                  248.1610p
      -4.9020m            17.9742k                      26.1985x                  177.5302p
      -4.9010m            17.9742k                      26.1985x                 -137.9792p
      -4.9000m            17.9742k                      26.1985x                  -30.6357p
      -4.8990m            17.9742k                      26.1986x                  -51.1382p
      -4.8980m            17.9742k                      26.1986x                   20.0673p
      -4.8970m            17.9742k                      26.1986x                  -75.7352p
      -4.8960m            17.9742k                      26.1986x                  -63.4335p
      -4.8950m            17.9742k                      26.1986x                  -50.0977p
      -4.8940m            17.9742k                      26.1986x                  -59.0163p
      -4.8930m            17.9742k                      26.1986x                 -147.8295p
      -4.8920m            17.9742k                      26.1987x                  -21.2319p
      -4.8910m            17.9742k                      26.1987x                  -93.2170p
      -4.8900m            17.9742k                      26.1987x                  104.5137p
      -4.8890m            17.9742k                      26.1987x                  229.5177p
      -4.8880m            17.9742k                      26.1987x                   83.6535p
      -4.8870m            17.9742k                      26.1987x                  -22.9581p
      -4.8860m            17.9742k                      26.1987x                   65.8469p
      -4.8850m            17.9742k                      26.1988x                  -74.0314p
      -4.8840m            17.9742k                      26.1988x                    4.0741p
      -4.8830m            17.9743k                      26.1988x                   11.4515p
      -4.8820m            17.9743k                      26.1988x                  160.3224p
      -4.8810m            17.9743k                      26.1988x                   30.7823p
      -4.8800m            17.9743k                      26.1988x                  -98.0365p
      -4.8790m            17.9743k                      26.1988x                   32.7363p
      -4.8780m            17.9743k                      26.1989x                    8.1812p
      -4.8770m            17.9743k                      26.1989x                   58.4848p
      -4.8760m            17.9743k                      26.1989x                 -215.4634p
      -4.8750m            17.9743k                      26.1989x                  103.0536p
      -4.8740m            17.9743k                      26.1989x                   46.2035p
      -4.8730m            17.9743k                      26.1989x                   41.5608p
      -4.8720m            17.9743k                      26.1989x                 -167.8113p
      -4.8710m            17.9743k                      26.1990x                  125.5036p
      -4.8700m            17.9743k                      26.1990x                   45.4832p
      -4.8690m            17.9743k                      26.1990x                   -8.9215p
      -4.8680m            17.9743k                      26.1990x                  159.2837p
      -4.8670m            17.9743k                      26.1990x                  -12.6530p
      -4.8660m            17.9743k                      26.1990x                  -79.2006p
      -4.8650m            17.9743k                      26.1990x                    3.7537p
      -4.8640m            17.9743k                      26.1991x                 -231.2668p
      -4.8630m            17.9743k                      26.1991x                   10.1217p
      -4.8620m            17.9743k                      26.1991x                  109.3643p
      -4.8610m            17.9743k                      26.1991x                  -30.1792p
      -4.8600m            17.9743k                      26.1991x                 -190.9839p
      -4.8590m            17.9743k                      26.1991x                  -17.5941p
      -4.8580m            17.9743k                      26.1991x                  100.7932p
      -4.8570m            17.9743k                      26.1991x                   65.6919p
      -4.8560m            17.9743k                      26.1992x                  131.0236p
      -4.8550m            17.9743k                      26.1992x                  189.2144p
      -4.8540m            17.9743k                      26.1992x                   36.4355p
      -4.8530m            17.9743k                      26.1992x                  113.9033p
      -4.8520m            17.9743k                      26.1992x                   10.5049p
      -4.8510m            17.9743k                      26.1992x                  -10.6088p
      -4.8500m            17.9743k                      26.1992x                 -227.8897p
      -4.8490m            17.9743k                      26.1993x                   48.5296p
      -4.8480m            17.9743k                      26.1993x                  212.5276p
      -4.8470m            17.9743k                      26.1993x                  -80.3015p
      -4.8460m            17.9743k                      26.1993x                   20.2280p
      -4.8450m            17.9743k                      26.1993x                  104.7666p
      -4.8440m            17.9743k                      26.1993x                  -28.8296p
      -4.8430m            17.9743k                      26.1993x                  135.7945p
      -4.8420m            17.9743k                      26.1994x                  291.3292p
      -4.8410m            17.9743k                      26.1994x                   69.6623p
      -4.8400m            17.9743k                      26.1994x                   83.9020p
      -4.8390m            17.9743k                      26.1994x                   41.9793p
      -4.8380m            17.9743k                      26.1994x                  -51.0387p
      -4.8370m            17.9743k                      26.1994x                    4.2426p
      -4.8360m            17.9743k                      26.1994x                 -222.8351p
      -4.8350m            17.9743k                      26.1995x                  -37.5395p
      -4.8340m            17.9743k                      26.1995x                  -14.6885p
      -4.8330m            17.9743k                      26.1995x                  136.6509p
      -4.8320m            17.9743k                      26.1995x                 -118.6196p
      -4.8310m            17.9744k                      26.1995x                  -29.8042p
      -4.8300m            17.9744k                      26.1995x                  -16.6096p
      -4.8290m            17.9744k                      26.1995x                 -138.2303p
      -4.8280m            17.9744k                      26.1996x                  180.5081p
      -4.8270m            17.9744k                      26.1996x                  226.0976p
      -4.8260m            17.9744k                      26.1996x                    6.0645p
      -4.8250m            17.9744k                      26.1996x                  106.6689p
      -4.8240m            17.9744k                      26.1996x                   37.4458p
      -4.8230m            17.9744k                      26.1996x                 -148.9220p
      -4.8220m            17.9744k                      26.1996x                  -63.9409p
      -4.8210m            17.9744k                      26.1997x                 -197.0870p
      -4.8200m            17.9744k                      26.1997x                 -173.6811p
      -4.8190m            17.9744k                      26.1997x                 -241.3176p
      -4.8180m            17.9744k                      26.1997x                  115.5400p
      -4.8170m            17.9744k                      26.1997x                  124.1520p
      -4.8160m            17.9744k                      26.1997x                   14.5646p
      -4.8150m            17.9744k                      26.1997x                  -54.6663p
      -4.8140m            17.9744k                      26.1998x                   20.6535p
      -4.8130m            17.9744k                      26.1998x                 -162.2178p
      -4.8120m            17.9744k                      26.1998x                  -29.7815p
      -4.8110m            17.9744k                      26.1998x                  127.8835p
      -4.8100m            17.9744k                      26.1998x                  -19.3672p
      -4.8090m            17.9744k                      26.1998x                  -37.3717p
      -4.8080m            17.9744k                      26.1998x                    4.6116p
      -4.8070m            17.9744k                      26.1998x                  -66.4200p
      -4.8060m            17.9744k                      26.1999x                   -6.3476p
      -4.8050m            17.9744k                      26.1999x                 -190.3682p
      -4.8040m            17.9744k                      26.1999x                  -62.8428p
      -4.8030m            17.9744k                      26.1999x                  -35.7587p
      -4.8020m            17.9744k                      26.1999x                  156.5388p
      -4.8010m            17.9744k                      26.1999x                   61.8363p
      -4.8000m            17.9744k                      26.1999x                 -140.3375p
      -4.7990m            17.9744k                      26.2000x                 -106.0743p
      -4.7980m            17.9744k                      26.2000x                  233.1839p
      -4.7970m            17.9744k                      26.2000x                  -89.6636p
      -4.7960m            17.9744k                      26.2000x                  104.6589p
      -4.7950m            17.9744k                      26.2000x                   16.3149p
      -4.7940m            17.9744k                      26.2000x                  170.4594p
      -4.7930m            17.9744k                      26.2000x                   78.1613p
      -4.7920m            17.9744k                      26.2001x                  122.4112p
      -4.7910m            17.9744k                      26.2001x                   81.8723p
      -4.7900m            17.9744k                      26.2001x                   -3.5585p
      -4.7890m            17.9744k                      26.2001x                  116.6107p
      -4.7880m            17.9744k                      26.2001x                  -73.3975p
      -4.7870m            17.9744k                      26.2001x                   70.0173p
      -4.7860m            17.9744k                      26.2001x                  -77.5044p
      -4.7850m            17.9744k                      26.2002x                   92.8599p
      -4.7840m            17.9744k                      26.2002x                  -43.2248p
      -4.7830m            17.9744k                      26.2002x                  -79.7877p
      -4.7820m            17.9744k                      26.2002x                   -4.7671p
      -4.7810m            17.9744k                      26.2002x                  -58.0933p
      -4.7800m            17.9744k                      26.2002x                  -41.7721p
      -4.7790m            17.9745k                      26.2002x                 -104.2086p
      -4.7780m            17.9745k                      26.2003x                  101.0421p
      -4.7770m            17.9745k                      26.2003x                  -87.1392p
      -4.7760m            17.9745k                      26.2003x                   38.8791p
      -4.7750m            17.9745k                      26.2003x                  -17.9656p
      -4.7740m            17.9745k                      26.2003x                  -16.4260p
      -4.7730m            17.9745k                      26.2003x                 -179.1087p
      -4.7720m            17.9745k                      26.2003x                   27.0035p
      -4.7710m            17.9745k                      26.2004x                 -112.7136p
      -4.7700m            17.9745k                      26.2004x                 -205.6593p
      -4.7690m            17.9745k                      26.2004x                 -130.0826p
      -4.7680m            17.9745k                      26.2004x                  344.7223p
      -4.7670m            17.9745k                      26.2004x                  -15.3426p
      -4.7660m            17.9745k                      26.2004x                  221.5830p
      -4.7650m            17.9745k                      26.2004x                   -9.6663p
      -4.7640m            17.9745k                      26.2004x                  287.9699p
      -4.7630m            17.9745k                      26.2005x                 -142.7636p
      -4.7620m            17.9745k                      26.2005x                  -64.0354p
      -4.7610m            17.9745k                      26.2005x                  -35.5536p
      -4.7600m            17.9745k                      26.2005x                  -38.4364p
      -4.7590m            17.9745k                      26.2005x                   31.1220p
      -4.7580m            17.9745k                      26.2005x                  225.7665p
      -4.7570m            17.9745k                      26.2005x                 -102.5542p
      -4.7560m            17.9745k                      26.2006x                   32.1032p
      -4.7550m            17.9745k                      26.2006x                  103.3136p
      -4.7540m            17.9745k                      26.2006x                  -44.1693p
      -4.7530m            17.9745k                      26.2006x                   16.6958p
      -4.7520m            17.9745k                      26.2006x                 -203.5163p
      -4.7510m            17.9745k                      26.2006x                  -23.4621p
      -4.7500m            17.9745k                      26.2006x                   84.1525p
      -4.7490m            17.9745k                      26.2007x                  -77.7993p
      -4.7480m            17.9745k                      26.2007x                  -63.4612p
      -4.7470m            17.9745k                      26.2007x                   38.2840p
      -4.7460m            17.9745k                      26.2007x                   26.8474p
      -4.7450m            17.9745k                      26.2007x                   92.6903p
      -4.7440m            17.9745k                      26.2007x                 -109.9818p
      -4.7430m            17.9745k                      26.2007x                   31.8279p
      -4.7420m            17.9745k                      26.2008x                 -128.7668p
      -4.7410m            17.9745k                      26.2008x                  121.1724p
      -4.7400m            17.9745k                      26.2008x                 -134.6632p
      -4.7390m            17.9745k                      26.2008x                  -54.1682p
      -4.7380m            17.9745k                      26.2008x                  155.7137p
      -4.7370m            17.9745k                      26.2008x                 -137.9894p
      -4.7360m            17.9745k                      26.2008x                  175.3819p
      -4.7350m            17.9745k                      26.2009x                 -142.5102p
      -4.7340m            17.9745k                      26.2009x                 -135.5240p
      -4.7330m            17.9745k                      26.2009x                   18.6262p
      -4.7320m            17.9745k                      26.2009x                  -92.9699p
      -4.7310m            17.9745k                      26.2009x                 -323.1095p
      -4.7300m            17.9745k                      26.2009x                   51.2455p
      -4.7290m            17.9745k                      26.2009x                 -125.0866p
      -4.7280m            17.9746k                      26.2010x                   37.5289p
      -4.7270m            17.9746k                      26.2010x                  -27.2655p
      -4.7260m            17.9746k                      26.2010x                   82.8040p
      -4.7250m            17.9746k                      26.2010x                   -2.3319p
      -4.7240m            17.9746k                      26.2010x                  155.1526p
      -4.7230m            17.9746k                      26.2010x                  242.9048p
      -4.7220m            17.9746k                      26.2010x                 -179.7238p
      -4.7210m            17.9746k                      26.2011x                  111.9489p
      -4.7200m            17.9746k                      26.2011x                  -43.3107p
      -4.7190m            17.9746k                      26.2011x                  199.6976p
      -4.7180m            17.9746k                      26.2011x                 -229.2277p
      -4.7170m            17.9746k                      26.2011x                  -12.2129p
      -4.7160m            17.9746k                      26.2011x                   85.3091p
      -4.7150m            17.9746k                      26.2011x                   94.1345p
      -4.7140m            17.9746k                      26.2011x                  -36.1386p
      -4.7130m            17.9746k                      26.2012x                   48.7255p
      -4.7120m            17.9746k                      26.2012x                  188.8683p
      -4.7110m            17.9746k                      26.2012x                  -99.5657p
      -4.7100m            17.9746k                      26.2012x                   12.4882p
      -4.7090m            17.9746k                      26.2012x                  -56.5876p
      -4.7080m            17.9746k                      26.2012x                  -92.5873p
      -4.7070m            17.9746k                      26.2012x                  122.4434p
      -4.7060m            17.9746k                      26.2013x                  165.9173p
      -4.7050m            17.9746k                      26.2013x                  -22.5706p
      -4.7040m            17.9746k                      26.2013x                  143.3227p
      -4.7030m            17.9746k                      26.2013x                   73.8638p
      -4.7020m            17.9746k                      26.2013x                  -21.5388p
      -4.7010m            17.9746k                      26.2013x                   59.4116p
      -4.7000m            17.9746k                      26.2013x                  -24.7566p
      -4.6990m            17.9746k                      26.2014x                   23.1606p
      -4.6980m            17.9746k                      26.2014x                  274.2717p
      -4.6970m            17.9746k                      26.2014x                 -107.5182p
      -4.6960m            17.9746k                      26.2014x                  115.1959p
      -4.6950m            17.9746k                      26.2014x                  152.2455p
      -4.6940m            17.9746k                      26.2014x                  220.2942p
      -4.6930m            17.9746k                      26.2014x                 -203.3516p
      -4.6920m            17.9746k                      26.2015x                  341.6443p
      -4.6910m            17.9746k                      26.2015x                 -114.6478p
      -4.6900m            17.9746k                      26.2015x                  -43.8769p
      -4.6890m            17.9746k                      26.2015x                  -48.7408p
      -4.6880m            17.9746k                      26.2015x                  -67.3144p
      -4.6870m            17.9746k                      26.2015x                  -65.4941p
      -4.6860m            17.9746k                      26.2015x                  -71.1551p
      -4.6850m            17.9746k                      26.2016x                  -25.4399p
      -4.6840m            17.9746k                      26.2016x                  -29.0774p
      -4.6830m            17.9746k                      26.2016x                  266.4535f
      -4.6820m            17.9746k                      26.2016x                  -54.9223p
      -4.6810m            17.9746k                      26.2016x                 -218.0818p
      -4.6800m            17.9746k                      26.2016x                  -19.1513p
      -4.6790m            17.9746k                      26.2016x                 -154.0514p
      -4.6780m            17.9746k                      26.2017x                  138.0474p
      -4.6770m            17.9746k                      26.2017x                 -242.7720p
      -4.6760m            17.9747k                      26.2017x                 -202.8531p
      -4.6750m            17.9747k                      26.2017x                  -33.0140p
      -4.6740m            17.9747k                      26.2017x                  -63.6395p
      -4.6730m            17.9747k                      26.2017x                  -47.4629p
      -4.6720m            17.9747k                      26.2017x                  -52.3841p
      -4.6710m            17.9747k                      26.2017x                 -128.5889p
      -4.6700m            17.9747k                      26.2018x                  -52.2127p
      -4.6690m            17.9747k                      26.2018x                   -4.7946p
      -4.6680m            17.9747k                      26.2018x                  -86.9962p
      -4.6670m            17.9747k                      26.2018x                  -80.5180p
      -4.6660m            17.9747k                      26.2018x                   71.9580p
      -4.6650m            17.9747k                      26.2018x                 -110.1577p
      -4.6640m            17.9747k                      26.2018x                  -53.8072p
      -4.6630m            17.9747k                      26.2019x                 -116.7078p
      -4.6620m            17.9747k                      26.2019x                   -5.1279p
      -4.6610m            17.9747k                      26.2019x                 -268.1548p
      -4.6600m            17.9747k                      26.2019x                   -7.2489p
      -4.6590m            17.9747k                      26.2019x                 -131.9655p
      -4.6580m            17.9747k                      26.2019x                 -275.3828p
      -4.6570m            17.9747k                      26.2019x                    1.5152p
      -4.6560m            17.9747k                      26.2020x                  -71.4000p
      -4.6550m            17.9747k                      26.2020x                  169.8275p
      -4.6540m            17.9747k                      26.2020x                   51.8230p
      -4.6530m            17.9747k                      26.2020x                   32.0910p
      -4.6520m            17.9747k                      26.2020x                 -195.0888p
      -4.6510m            17.9747k                      26.2020x                 -114.0275p
      -4.6500m            17.9747k                      26.2020x                  -77.0857p
      -4.6490m            17.9747k                      26.2021x                  -34.4942p
      -4.6480m            17.9747k                      26.2021x                  -34.3503p
      -4.6470m            17.9747k                      26.2021x                  157.8118p
      -4.6460m            17.9747k                      26.2021x                   25.0582p
      -4.6450m            17.9747k                      26.2021x                  -74.7706p
      -4.6440m            17.9747k                      26.2021x                  130.7454p
      -4.6430m            17.9747k                      26.2021x                  -32.0366p
      -4.6420m            17.9747k                      26.2022x                 -200.2891p
      -4.6410m            17.9747k                      26.2022x                  102.4223p
      -4.6400m            17.9747k                      26.2022x                   35.8411p
      -4.6390m            17.9747k                      26.2022x                  301.2901p
      -4.6380m            17.9747k                      26.2022x                  -37.0677p
      -4.6370m            17.9747k                      26.2022x                  117.3370p
      -4.6360m            17.9747k                      26.2022x                 -123.3098p
      -4.6350m            17.9747k                      26.2023x                  133.1175p
      -4.6340m            17.9747k                      26.2023x                  165.2625p
      -4.6330m            17.9747k                      26.2023x                  140.2529p
      -4.6320m            17.9747k                      26.2023x                  -15.4066p
      -4.6310m            17.9747k                      26.2023x                 -173.6316p
      -4.6300m            17.9747k                      26.2023x                  -73.5092p
      -4.6290m            17.9747k                      26.2023x                   96.4651p
      -4.6280m            17.9747k                      26.2024x                   56.3820p
      -4.6270m            17.9747k                      26.2024x                  -40.8364p
      -4.6260m            17.9747k                      26.2024x                   11.1460p
      -4.6250m            17.9747k                      26.2024x                 -131.6911p
      -4.6240m            17.9748k                      26.2024x                 -135.5962p
      -4.6230m            17.9748k                      26.2024x                  -65.7456p
      -4.6220m            17.9748k                      26.2024x                 -131.9007p
      -4.6210m            17.9748k                      26.2024x                   68.9440p
      -4.6200m            17.9748k                      26.2025x                  132.0881p
      -4.6190m            17.9748k                      26.2025x                   44.6865p
      -4.6180m            17.9748k                      26.2025x                   44.0827p
      -4.6170m            17.9748k                      26.2025x                 -122.2844p
      -4.6160m            17.9748k                      26.2025x                  -22.9516p
      -4.6150m            17.9748k                      26.2025x                    8.8880p
      -4.6140m            17.9748k                      26.2025x                 -119.7233p
      -4.6130m            17.9748k                      26.2026x                 -108.3262p
      -4.6120m            17.9748k                      26.2026x                  -91.8967p
      -4.6110m            17.9748k                      26.2026x                   -4.5812p
      -4.6100m            17.9748k                      26.2026x                 -145.2272p
      -4.6090m            17.9748k                      26.2026x                   27.7931p
      -4.6080m            17.9748k                      26.2026x                 -113.1930p
      -4.6070m            17.9748k                      26.2026x                  156.9023p
      -4.6060m            17.9748k                      26.2027x                   59.6856p
      -4.6050m            17.9748k                      26.2027x                  -17.3708p
      -4.6040m            17.9748k                      26.2027x                  -75.8027p
      -4.6030m            17.9748k                      26.2027x                  -92.2324p
      -4.6020m            17.9748k                      26.2027x                  -85.6966p
      -4.6010m            17.9748k                      26.2027x                   21.7368p
      -4.6000m            17.9748k                      26.2027x                 -224.5559p
      -4.5990m            17.9748k                      26.2028x                 -243.0893p
      -4.5980m            17.9748k                      26.2028x                  -14.6636p
      -4.5970m            17.9748k                      26.2028x                 -203.1559p
      -4.5960m            17.9748k                      26.2028x                  -77.5808p
      -4.5950m            17.9748k                      26.2028x                   70.6908p
      -4.5940m            17.9748k                      26.2028x                  -86.4968p
      -4.5930m            17.9748k                      26.2028x                 -202.7696p
      -4.5920m            17.9748k                      26.2029x                  -63.9557p
      -4.5910m            17.9748k                      26.2029x                 -103.0551p
      -4.5900m            17.9748k                      26.2029x                   32.8524p
      -4.5890m            17.9748k                      26.2029x                  129.2337p
      -4.5880m            17.9748k                      26.2029x                 -207.6330p
      -4.5870m            17.9748k                      26.2029x                 -122.5156p
      -4.5860m            17.9748k                      26.2029x                  -98.7732p
      -4.5850m            17.9748k                      26.2030x                  -34.3507p
      -4.5840m            17.9748k                      26.2030x                  -67.6157p
      -4.5830m            17.9748k                      26.2030x                  156.9729p
      -4.5820m            17.9748k                      26.2030x                  -10.5227p
      -4.5810m            17.9748k                      26.2030x                  -24.2419p
      -4.5800m            17.9748k                      26.2030x                   83.5492p
      -4.5790m            17.9748k                      26.2030x                 -190.0911p
      -4.5780m            17.9748k                      26.2030x                 -177.0852p
      -4.5770m            17.9748k                      26.2031x                  168.9804p
      -4.5760m            17.9748k                      26.2031x                  -42.6632p
      -4.5750m            17.9748k                      26.2031x                  -54.0197p
      -4.5740m            17.9748k                      26.2031x                   61.5186p
      -4.5730m            17.9748k                      26.2031x                   90.2127p
      -4.5720m            17.9749k                      26.2031x                 -175.7086p
      -4.5710m            17.9749k                      26.2031x                  134.4820p
      -4.5700m            17.9749k                      26.2032x                  -70.5953p
      -4.5690m            17.9749k                      26.2032x                   52.2458p
      -4.5680m            17.9749k                      26.2032x                    1.5175p
      -4.5670m            17.9749k                      26.2032x                 -454.5253f
      -4.5660m            17.9749k                      26.2032x                  -74.3201p
      -4.5650m            17.9749k                      26.2032x                  105.7543p
      -4.5640m            17.9749k                      26.2032x                    3.7930p
      -4.5630m            17.9749k                      26.2033x                 -263.7150p
      -4.5620m            17.9749k                      26.2033x                 -136.2388p
      -4.5610m            17.9749k                      26.2033x                  -51.0674p
      -4.5600m            17.9749k                      26.2033x                   27.8637p
      -4.5590m            17.9749k                      26.2033x                  -20.1503p
      -4.5580m            17.9749k                      26.2033x                   -7.6945p
      -4.5570m            17.9749k                      26.2033x                  153.3065p
      -4.5560m            17.9749k                      26.2034x                 -149.0434p
      -4.5550m            17.9749k                      26.2034x                  -70.7276p
      -4.5540m            17.9749k                      26.2034x                  -90.2101p
      -4.5530m            17.9749k                      26.2034x                  121.0576p
      -4.5520m            17.9749k                      26.2034x                   71.2983p
      -4.5510m            17.9749k                      26.2034x                   -3.3471p
      -4.5500m            17.9749k                      26.2034x                   79.6951p
      -4.5490m            17.9749k                      26.2035x                   59.9842p
      -4.5480m            17.9749k                      26.2035x                   56.9509p
      -4.5470m            17.9749k                      26.2035x                   38.2454p
      -4.5460m            17.9749k                      26.2035x                  -74.7282p
      -4.5450m            17.9749k                      26.2035x                   62.1234p
      -4.5440m            17.9749k                      26.2035x                   46.2863p
      -4.5430m            17.9749k                      26.2035x                   50.2223p
      -4.5420m            17.9749k                      26.2036x                 -198.9235p
      -4.5410m            17.9749k                      26.2036x                   92.9505p
      -4.5400m            17.9749k                      26.2036x                 -194.2584p
      -4.5390m            17.9749k                      26.2036x                  -97.7691p
      -4.5380m            17.9749k                      26.2036x                   -2.6577p
      -4.5370m            17.9749k                      26.2036x                  -50.5544p
      -4.5360m            17.9749k                      26.2036x                  -82.3899p
      -4.5350m            17.9749k                      26.2037x                  144.8635p
      -4.5340m            17.9749k                      26.2037x                  -47.0006p
      -4.5330m            17.9749k                      26.2037x                   16.4078p
      -4.5320m            17.9749k                      26.2037x                   39.0956p
      -4.5310m            17.9749k                      26.2037x                   72.9337p
      -4.5300m            17.9749k                      26.2037x                  193.6264p
      -4.5290m            17.9749k                      26.2037x                   87.1312p
      -4.5280m            17.9749k                      26.2037x                  151.5559p
      -4.5270m            17.9749k                      26.2038x                   50.7709p
      -4.5260m            17.9749k                      26.2038x                  -24.7935p
      -4.5250m            17.9749k                      26.2038x                   -5.6859p
      -4.5240m            17.9749k                      26.2038x                  -31.5608p
      -4.5230m            17.9749k                      26.2038x                   10.6515p
      -4.5220m            17.9749k                      26.2038x                  -16.5261p
      -4.5210m            17.9750k                      26.2038x                  122.1869p
      -4.5200m            17.9750k                      26.2039x                  -64.4063p
      -4.5190m            17.9750k                      26.2039x                  130.1754p
      -4.5180m            17.9750k                      26.2039x                 -152.3930p
      -4.5170m            17.9750k                      26.2039x                   -7.6952p
      -4.5160m            17.9750k                      26.2039x                  -56.3174p
      -4.5150m            17.9750k                      26.2039x                   62.7247p
      -4.5140m            17.9750k                      26.2039x                  -30.9686p
      -4.5130m            17.9750k                      26.2040x                   43.5190p
      -4.5120m            17.9750k                      26.2040x                   38.8762p
      -4.5110m            17.9750k                      26.2040x                   32.3122p
      -4.5100m            17.9750k                      26.2040x                  -71.8006p
      -4.5090m            17.9750k                      26.2040x                   52.8948p
      -4.5080m            17.9750k                      26.2040x                  163.4199p
      -4.5070m            17.9750k                      26.2040x                  -15.0959p
      -4.5060m            17.9750k                      26.2041x                    2.5073p
      -4.5050m            17.9750k                      26.2041x                  268.2632p
      -4.5040m            17.9750k                      26.2041x                  -33.5818p
      -4.5030m            17.9750k                      26.2041x                  716.9820f
      -4.5020m            17.9750k                      26.2041x                  -98.4444p
      -4.5010m            17.9750k                      26.2041x                  119.7153p
      -4.5000m            17.9750k                      26.2041x                 -170.5647p
      -4.4990m            17.9750k                      26.2042x                  177.7307p
      -4.4980m            17.9750k                      26.2042x                 -293.5927p
      -4.4970m            17.9750k                      26.2042x                  -98.2527p
      -4.4960m            17.9750k                      26.2042x                  -35.8140p
      -4.4950m            17.9750k                      26.2042x                 -130.9495p
      -4.4940m            17.9750k                      26.2042x                  243.3311p
      -4.4930m            17.9750k                      26.2042x                 -160.2489p
      -4.4920m            17.9750k                      26.2043x                  -59.0541p
      -4.4910m            17.9750k                      26.2043x                   -1.5017p
      -4.4900m            17.9750k                      26.2043x                  136.0225p
      -4.4890m            17.9750k                      26.2043x                  -23.1037p
      -4.4880m            17.9750k                      26.2043x                   62.2042p
      -4.4870m            17.9750k                      26.2043x                  -54.1656p
      -4.4860m            17.9750k                      26.2043x                   83.4632p
      -4.4850m            17.9750k                      26.2043x                   66.9389p
      -4.4840m            17.9750k                      26.2044x                   83.4892p
      -4.4830m            17.9750k                      26.2044x                   21.2734p
      -4.4820m            17.9750k                      26.2044x                  110.2882p
      -4.4810m            17.9750k                      26.2044x                   88.4748p
      -4.4800m            17.9750k                      26.2044x                   49.7455p
      -4.4790m            17.9750k                      26.2044x                   19.3578p
      -4.4780m            17.9750k                      26.2044x                  225.2354p
      -4.4770m            17.9750k                      26.2045x                   36.1104p
      -4.4760m            17.9750k                      26.2045x                 -107.5411p
      -4.4750m            17.9750k                      26.2045x                   58.2490p
      -4.4740m            17.9750k                      26.2045x                  -96.3010p
      -4.4730m            17.9750k                      26.2045x                   10.7836p
      -4.4720m            17.9750k                      26.2045x                   49.9121p
      -4.4710m            17.9750k                      26.2045x                  -84.2002p
      -4.4700m            17.9750k                      26.2046x                  -38.0052p
      -4.4690m            17.9751k                      26.2046x                  186.1316p
      -4.4680m            17.9751k                      26.2046x                   57.0504p
      -4.4670m            17.9751k                      26.2046x                 -114.4334p
      -4.4660m            17.9751k                      26.2046x                   48.9033p
      -4.4650m            17.9751k                      26.2046x                 -174.6319p
      -4.4640m            17.9751k                      26.2046x                   47.1430p
      -4.4630m            17.9751k                      26.2047x                  -29.5386p
      -4.4620m            17.9751k                      26.2047x                   80.0968p
      -4.4610m            17.9751k                      26.2047x                   58.0795p
      -4.4600m            17.9751k                      26.2047x                  -35.5114p
      -4.4590m            17.9751k                      26.2047x                  -39.9503p
      -4.4580m            17.9751k                      26.2047x                   19.9840p
      -4.4570m            17.9751k                      26.2047x                   -4.4802p
      -4.4560m            17.9751k                      26.2048x                  104.3845p
      -4.4550m            17.9751k                      26.2048x                   -9.4416p
      -4.4540m            17.9751k                      26.2048x                 -147.2940p
      -4.4530m            17.9751k                      26.2048x                  121.5281p
      -4.4520m            17.9751k                      26.2048x                  156.5106p
      -4.4510m            17.9751k                      26.2048x                 -101.6667p
      -4.4500m            17.9751k                      26.2048x                   63.9098p
      -4.4490m            17.9751k                      26.2049x                    9.0861p
      -4.4480m            17.9751k                      26.2049x                  115.5824p
      -4.4470m            17.9751k                      26.2049x                   67.5255p
      -4.4460m            17.9751k                      26.2049x                   58.5250p
      -4.4450m            17.9751k                      26.2049x                 -220.7661p
      -4.4440m            17.9751k                      26.2049x                  184.4624p
      -4.4430m            17.9751k                      26.2049x                   70.2949p
      -4.4420m            17.9751k                      26.2049x                   33.1091p
      -4.4410m            17.9751k                      26.2050x                   38.6107p
      -4.4400m            17.9751k                      26.2050x                  -72.0790p
      -4.4390m            17.9751k                      26.2050x                    4.9960p
      -4.4380m            17.9751k                      26.2050x                  -22.3768p
      -4.4370m            17.9751k                      26.2050x                   31.1660p
      -4.4360m            17.9751k                      26.2050x                  133.9957p
      -4.4350m            17.9751k                      26.2050x                  324.4107p
      -4.4340m            17.9751k                      26.2051x                  -12.1323p
      -4.4330m            17.9751k                      26.2051x                  -72.6648p
      -4.4320m            17.9751k                      26.2051x                 -180.5653p
      -4.4310m            17.9751k                      26.2051x                  -10.2010p
      -4.4300m            17.9751k                      26.2051x                   93.9078p
      -4.4290m            17.9751k                      26.2051x                 -131.9935p
      -4.4280m            17.9751k                      26.2051x                   65.9099p
      -4.4270m            17.9751k                      26.2052x                  -31.4362p
      -4.4260m            17.9751k                      26.2052x                  -90.7743p
      -4.4250m            17.9751k                      26.2052x                   44.8095p
      -4.4240m            17.9751k                      26.2052x                   96.5956p
      -4.4230m            17.9751k                      26.2052x                   74.2890p
      -4.4220m            17.9751k                      26.2052x                   11.5248p
      -4.4210m            17.9751k                      26.2052x                 -254.4682p
      -4.4200m            17.9751k                      26.2053x                 -104.1731p
      -4.4190m            17.9751k                      26.2053x                 -235.7792p
      -4.4180m            17.9751k                      26.2053x                  -25.6120p
      -4.4170m            17.9752k                      26.2053x                 -182.8919p
      -4.4160m            17.9752k                      26.2053x                   75.5511p
      -4.4150m            17.9752k                      26.2053x                  -20.3544p
      -4.4140m            17.9752k                      26.2053x                  113.9009p
      -4.4130m            17.9752k                      26.2054x                  131.3143p
      -4.4120m            17.9752k                      26.2054x                   74.8401p
      -4.4110m            17.9752k                      26.2054x                  174.1685p
      -4.4100m            17.9752k                      26.2054x                 -127.3901p
      -4.4090m            17.9752k                      26.2054x                   -3.0420p
      -4.4080m            17.9752k                      26.2054x                   72.8508p
      -4.4070m            17.9752k                      26.2054x                  109.1840p
      -4.4060m            17.9752k                      26.2055x                   59.5668p
      -4.4050m            17.9752k                      26.2055x                 -176.5692p
      -4.4040m            17.9752k                      26.2055x                   90.3557p
      -4.4030m            17.9752k                      26.2055x                  213.8134p
      -4.4020m            17.9752k                      26.2055x                    9.0561p
      -4.4010m            17.9752k                      26.2055x                  130.4037p
      -4.4000m            17.9752k                      26.2055x                  -75.4228p
      -4.3990m            17.9752k                      26.2055x                   45.3664p
      -4.3980m            17.9752k                      26.2056x                 -120.1041p
      -4.3970m            17.9752k                      26.2056x                  -18.3258p
      -4.3960m            17.9752k                      26.2056x                  155.3109p
      -4.3950m            17.9752k                      26.2056x                 -114.0641p
      -4.3940m            17.9752k                      26.2056x                   87.4061p
      -4.3930m            17.9752k                      26.2056x                   -1.8447p
      -4.3920m            17.9752k                      26.2056x                   10.3149p
      -4.3910m            17.9752k                      26.2057x                   30.6115p
      -4.3900m            17.9752k                      26.2057x                  -24.7231p
      -4.3890m            17.9752k                      26.2057x                 -104.6805p
      -4.3880m            17.9752k                      26.2057x                   13.8500p
      -4.3870m            17.9752k                      26.2057x                  -29.8550p
      -4.3860m            17.9752k                      26.2057x                 -174.2602p
      -4.3850m            17.9752k                      26.2057x                  -95.8396p
      -4.3840m            17.9752k                      26.2058x                  -27.5402p
      -4.3830m            17.9752k                      26.2058x                   -3.5727p
      -4.3820m            17.9752k                      26.2058x                 -210.6650p
      -4.3810m            17.9752k                      26.2058x                   64.8548p
      -4.3800m            17.9752k                      26.2058x                 -128.5820p
      -4.3790m            17.9752k                      26.2058x                 -114.5686p
      -4.3780m            17.9752k                      26.2058x                   47.9061p
      -4.3770m            17.9752k                      26.2059x                   35.2580p
      -4.3760m            17.9752k                      26.2059x                 -195.6995p
      -4.3750m            17.9752k                      26.2059x                  -94.9749p
      -4.3740m            17.9752k                      26.2059x                  -70.2824p
      -4.3730m            17.9752k                      26.2059x                  -75.4488p
      -4.3720m            17.9752k                      26.2059x                   45.4321p
      -4.3710m            17.9752k                      26.2059x                   87.5364p
      -4.3700m            17.9752k                      26.2060x                    4.0343p
      -4.3690m            17.9752k                      26.2060x                  -52.1705p
      -4.3680m            17.9752k                      26.2060x                 -146.4722p
      -4.3670m            17.9752k                      26.2060x                  -12.7347p
      -4.3660m            17.9752k                      26.2060x                 -245.0549p
      -4.3650m            17.9753k                      26.2060x                 -102.7631p
      -4.3640m            17.9753k                      26.2060x                  -57.0368p
      -4.3630m            17.9753k                      26.2061x                    7.7685p
      -4.3620m            17.9753k                      26.2061x                  119.5313p
      -4.3610m            17.9753k                      26.2061x                    9.8945p
      -4.3600m            17.9753k                      26.2061x                 -173.1213p
      -4.3590m            17.9753k                      26.2061x                   86.1866p
      -4.3580m            17.9753k                      26.2061x                 -185.7356p
      -4.3570m            17.9753k                      26.2061x                  -20.1916p
      -4.3560m            17.9753k                      26.2062x                  -42.4409p
      -4.3550m            17.9753k                      26.2062x                  -92.1940p
      -4.3540m            17.9753k                      26.2062x                 -141.6018p
      -4.3530m            17.9753k                      26.2062x                   44.2499p
      -4.3520m            17.9753k                      26.2062x                   73.5849p
      -4.3510m            17.9753k                      26.2062x                  224.8617p
      -4.3500m            17.9753k                      26.2062x                  -45.8709p
      -4.3490m            17.9753k                      26.2062x                  -79.6152p
      -4.3480m            17.9753k                      26.2063x                  118.5998p
      -4.3470m            17.9753k                      26.2063x                    4.1289p
      -4.3460m            17.9753k                      26.2063x                 -152.4232p
      -4.3450m            17.9753k                      26.2063x                 -195.7565p
      -4.3440m            17.9753k                      26.2063x                   62.3008p
      -4.3430m            17.9753k                      26.2063x                  -36.6687p
      -4.3420m            17.9753k                      26.2063x                   87.1687p
      -4.3410m            17.9753k                      26.2064x                  -78.3233p
      -4.3400m            17.9753k                      26.2064x                   98.8509p
      -4.3390m            17.9753k                      26.2064x                 -119.9567p
      -4.3380m            17.9753k                      26.2064x                  -91.6458p
      -4.3370m            17.9753k                      26.2064x                  -32.3916p
      -4.3360m            17.9753k                      26.2064x                  -92.7600p
      -4.3350m            17.9753k                      26.2064x                   16.1431p
      -4.3340m            17.9753k                      26.2065x                 -208.6153p
      -4.3330m            17.9753k                      26.2065x                  119.5162p
      -4.3320m            17.9753k                      26.2065x                  -19.2859p
      -4.3310m            17.9753k                      26.2065x                 -101.2999p
      -4.3300m            17.9753k                      26.2065x                 -109.3710p
      -4.3290m            17.9753k                      26.2065x                   63.0311p
      -4.3280m            17.9753k                      26.2065x                 -105.1903p
      -4.3270m            17.9753k                      26.2066x                   70.9348p
      -4.3260m            17.9753k                      26.2066x                  -55.0919p
      -4.3250m            17.9753k                      26.2066x                 -142.2429p
      -4.3240m            17.9753k                      26.2066x                  -36.4411p
      -4.3230m            17.9753k                      26.2066x                  -25.2829p
      -4.3220m            17.9753k                      26.2066x                 -110.4550p
      -4.3210m            17.9753k                      26.2066x                  -72.6670p
      -4.3200m            17.9753k                      26.2067x                  -91.0936p
      -4.3190m            17.9753k                      26.2067x                  -79.2428p
      -4.3180m            17.9753k                      26.2067x                  104.9214p
      -4.3170m            17.9753k                      26.2067x                   62.7800p
      -4.3160m            17.9753k                      26.2067x                 -151.6942p
      -4.3150m            17.9753k                      26.2067x                  -12.3412p
      -4.3140m            17.9753k                      26.2067x                  -49.4236p
      -4.3130m            17.9754k                      26.2068x                 -399.4025p
      -4.3120m            17.9754k                      26.2068x                  119.0379p
      -4.3110m            17.9754k                      26.2068x                  156.5372p
      -4.3100m            17.9754k                      26.2068x                 -194.0994p
      -4.3090m            17.9754k                      26.2068x                 -220.8158p
      -4.3080m            17.9754k                      26.2068x                   16.0363p
      -4.3070m            17.9754k                      26.2068x                  -49.8577p
      -4.3060m            17.9754k                      26.2068x                  106.9389p
      -4.3050m            17.9754k                      26.2069x                  131.2410p
      -4.3040m            17.9754k                      26.2069x                  106.6169p
      -4.3030m            17.9754k                      26.2069x                   85.5842p
      -4.3020m            17.9754k                      26.2069x                   49.4902p
      -4.3010m            17.9754k                      26.2069x                 -109.2155p
      -4.3000m            17.9754k                      26.2069x                   51.3956p
      -4.2990m            17.9754k                      26.2069x                   33.7166p
      -4.2980m            17.9754k                      26.2070x                  111.6001p
      -4.2970m            17.9754k                      26.2070x                   54.5821p
      -4.2960m            17.9754k                      26.2070x                  126.1806p
      -4.2950m            17.9754k                      26.2070x                  -31.5734p
      -4.2940m            17.9754k                      26.2070x                  -72.5593p
      -4.2930m            17.9754k                      26.2070x                   51.4782p
      -4.2920m            17.9754k                      26.2070x                 -159.9010p
      -4.2910m            17.9754k                      26.2071x                  -94.7848p
      -4.2900m            17.9754k                      26.2071x                   27.3319p
      -4.2890m            17.9754k                      26.2071x                  105.0457p
      -4.2880m            17.9754k                      26.2071x                  -63.8309p
      -4.2870m            17.9754k                      26.2071x                 -144.3921p
      -4.2860m            17.9754k                      26.2071x                  -23.1226p
      -4.2850m            17.9754k                      26.2071x                 -107.6921p
      -4.2840m            17.9754k                      26.2072x                  112.7654p
      -4.2830m            17.9754k                      26.2072x                    6.7322p
      -4.2820m            17.9754k                      26.2072x                  -50.5440p
      -4.2810m            17.9754k                      26.2072x                 -117.7969p
      -4.2800m            17.9754k                      26.2072x                   41.6740p
      -4.2790m            17.9754k                      26.2072x                 -312.9328p
      -4.2780m            17.9754k                      26.2072x                  259.2855p
      -4.2770m            17.9754k                      26.2073x                   71.1964p
      -4.2760m            17.9754k                      26.2073x                  -79.5413p
      -4.2750m            17.9754k                      26.2073x                  233.9837p
      -4.2740m            17.9754k                      26.2073x                  -25.4685p
      -4.2730m            17.9754k                      26.2073x                   70.3597p
      -4.2720m            17.9754k                      26.2073x                   25.8384p
      -4.2710m            17.9754k                      26.2073x                 -173.0707p
      -4.2700m            17.9754k                      26.2074x                  -94.7014p
      -4.2690m            17.9754k                      26.2074x                   86.6121p
      -4.2680m            17.9754k                      26.2074x                  -33.9835p
      -4.2670m            17.9754k                      26.2074x                   -5.5942p
      -4.2660m            17.9754k                      26.2074x                   71.1009p
      -4.2650m            17.9754k                      26.2074x                 -134.7322p
      -4.2640m            17.9754k                      26.2074x                  -24.4895p
      -4.2630m            17.9754k                      26.2074x                   40.1978p
      -4.2620m            17.9755k                      26.2075x                  173.8973p
      -4.2610m            17.9755k                      26.2075x                  261.0607p
      -4.2600m            17.9755k                      26.2075x                 -145.2580p
      -4.2590m            17.9755k                      26.2075x                  117.3037p
      -4.2580m            17.9755k                      26.2075x                 -133.3265p
      -4.2570m            17.9755k                      26.2075x                  -18.6007p
      -4.2560m            17.9755k                      26.2075x                  -41.4460p
      -4.2550m            17.9755k                      26.2076x                  136.7508p
      -4.2540m            17.9755k                      26.2076x                   39.2784p
      -4.2530m            17.9755k                      26.2076x                  122.4880p
      -4.2520m            17.9755k                      26.2076x                  182.8389p
      -4.2510m            17.9755k                      26.2076x                  177.6326p
      -4.2500m            17.9755k                      26.2076x                   -1.7479p
      -4.2490m            17.9755k                      26.2076x                   60.4781p
      -4.2480m            17.9755k                      26.2077x                  158.0533p
      -4.2470m            17.9755k                      26.2077x                  226.4107p
      -4.2460m            17.9755k                      26.2077x                  128.0480p
      -4.2450m            17.9755k                      26.2077x                 -106.7926p
      -4.2440m            17.9755k                      26.2077x                 -103.5112p
      -4.2430m            17.9755k                      26.2077x                   16.0114p
      -4.2420m            17.9755k                      26.2077x                   19.9087p
      -4.2410m            17.9755k                      26.2078x                   65.3515p
      -4.2400m            17.9755k                      26.2078x                   85.4381p
      -4.2390m            17.9755k                      26.2078x                  -43.4779p
      -4.2380m            17.9755k                      26.2078x                   12.0939p
      -4.2370m            17.9755k                      26.2078x                 -153.4430p
      -4.2360m            17.9755k                      26.2078x                   87.3599p
      -4.2350m            17.9755k                      26.2078x                   57.7252p
      -4.2340m            17.9755k                      26.2079x                  -75.9801p
      -4.2330m            17.9755k                      26.2079x                  150.1388p
      -4.2320m            17.9755k                      26.2079x                   -3.4037p
      -4.2310m            17.9755k                      26.2079x                    1.7111p
      -4.2300m            17.9755k                      26.2079x                  -11.3192p
      -4.2290m            17.9755k                      26.2079x                 -161.5035p
      -4.2280m            17.9755k                      26.2079x                  -20.3484p
      -4.2270m            17.9755k                      26.2080x                   11.2441p
      -4.2260m            17.9755k                      26.2080x                 -193.6897p
      -4.2250m            17.9755k                      26.2080x                 -113.2248p
      -4.2240m            17.9755k                      26.2080x                  139.4358p
      -4.2230m            17.9755k                      26.2080x                   34.7549p
      -4.2220m            17.9755k                      26.2080x                  141.5534p
      -4.2210m            17.9755k                      26.2080x                 -160.0033p
      -4.2200m            17.9755k                      26.2080x                  -83.9251p
      -4.2190m            17.9755k                      26.2081x                   36.4282p
      -4.2180m            17.9755k                      26.2081x                  176.3345p
      -4.2170m            17.9755k                      26.2081x                  229.8017p
      -4.2160m            17.9755k                      26.2081x                  167.5784p
      -4.2150m            17.9755k                      26.2081x                  -54.1822p
      -4.2140m            17.9755k                      26.2081x                   36.1413p
      -4.2130m            17.9755k                      26.2081x                  156.6114p
      -4.2120m            17.9755k                      26.2082x                 -138.3322p
      -4.2110m            17.9755k                      26.2082x                  -58.6386p
      -4.2100m            17.9756k                      26.2082x                   10.1572p
      -4.2090m            17.9756k                      26.2082x                 -107.7145p
      -4.2080m            17.9756k                      26.2082x                  -64.1345p
      -4.2070m            17.9756k                      26.2082x                 -138.2392p
      -4.2060m            17.9756k                      26.2082x                   69.5148p
      -4.2050m            17.9756k                      26.2083x                 -267.3386p
      -4.2040m            17.9756k                      26.2083x                  180.4914p
      -4.2030m            17.9756k                      26.2083x                 -100.3255p
      -4.2020m            17.9756k                      26.2083x                  -65.6026p
      -4.2010m            17.9756k                      26.2083x                  -20.0968p
      -4.2000m            17.9756k                      26.2083x                   97.4449p
      -4.1990m            17.9756k                      26.2083x                   52.3375p
      -4.1980m            17.9756k                      26.2084x                   31.0008p
      -4.1970m            17.9756k                      26.2084x                   92.9359p
      -4.1960m            17.9756k                      26.2084x                 -116.7213p
      -4.1950m            17.9756k                      26.2084x                   64.0661p
      -4.1940m            17.9756k                      26.2084x                   18.2265p
      -4.1930m            17.9756k                      26.2084x                   89.7555p
      -4.1920m            17.9756k                      26.2084x                 -271.0423p
      -4.1910m            17.9756k                      26.2085x                  207.2069p
      -4.1900m            17.9756k                      26.2085x                 -194.6472p
      -4.1890m            17.9756k                      26.2085x                  -92.1137p
      -4.1880m            17.9756k                      26.2085x                   56.6371p
      -4.1870m            17.9756k                      26.2085x                  -87.8368p
      -4.1860m            17.9756k                      26.2085x                    5.5902p
      -4.1850m            17.9756k                      26.2085x                  119.3390p
      -4.1840m            17.9756k                      26.2086x                  -41.3269p
      -4.1830m            17.9756k                      26.2086x                   51.6440p
      -4.1820m            17.9756k                      26.2086x                  107.8200p
      -4.1810m            17.9756k                      26.2086x                   49.0170p
      -4.1800m            17.9756k                      26.2086x                  -44.3969p
      -4.1790m            17.9756k                      26.2086x                  -12.0521p
      -4.1780m            17.9756k                      26.2086x                 -127.6224p
      -4.1770m            17.9756k                      26.2086x                   76.7759p
      -4.1760m            17.9756k                      26.2087x                 -106.6176p
      -4.1750m            17.9756k                      26.2087x                 -136.7413p
      -4.1740m            17.9756k                      26.2087x                    7.2400p
      -4.1730m            17.9756k                      26.2087x                  -73.4119p
      -4.1720m            17.9756k                      26.2087x                   75.6053p
      -4.1710m            17.9756k                      26.2087x                 -226.3529p
      -4.1700m            17.9756k                      26.2087x                   79.6887p
      -4.1690m            17.9756k                      26.2088x                  109.0519p
      -4.1680m            17.9756k                      26.2088x                   48.6238p
      -4.1670m            17.9756k                      26.2088x                  -28.7661p
      -4.1660m            17.9756k                      26.2088x                   -1.7877p
      -4.1650m            17.9756k                      26.2088x                 -169.2564p
      -4.1640m            17.9756k                      26.2088x                  -13.9806p
      -4.1630m            17.9756k                      26.2088x                  -99.2224p
      -4.1620m            17.9756k                      26.2089x                  -43.7492p
      -4.1610m            17.9756k                      26.2089x                  -57.3743p
      -4.1600m            17.9756k                      26.2089x                 -125.9153p
      -4.1590m            17.9756k                      26.2089x                   -2.8197p
      -4.1580m            17.9757k                      26.2089x                   64.2513p
      -4.1570m            17.9757k                      26.2089x                    2.9561p
[...]
       4.9860m            17.9931k                      26.3349x                   88.3307p
       4.9870m            17.9931k                      26.3349x                  -36.5545p
       4.9880m            17.9931k                      26.3349x                  -74.9154p
       4.9890m            17.9931k                      26.3349x                  -19.6818p
       4.9900m            17.9931k                      26.3349x                 -235.0775p
       4.9910m            17.9931k                      26.3349x                  141.3529p
       4.9920m            17.9931k                      26.3350x                 -206.7728p
       4.9930m            17.9931k                      26.3350x                   90.4947p
       4.9940m            17.9931k                      26.3350x                   37.7627p
       4.9950m            17.9931k                      26.3350x                 -124.5133p
       4.9960m            17.9931k                      26.3350x                 -149.5870p
       4.9970m            17.9931k                      26.3350x                   43.6005p
       4.9980m            17.9931k                      26.3350x                   18.2732p
       4.9990m            17.9931k                      26.3351x                   14.1998p
       5.0000m            17.9931k                      26.3351x                 -192.3455p
  
1****** HSPICE -- F-2011.09 64-BIT (Sep  5 2011) linux ******                   
 ******  
 * eesm5120 amplifier design

  ******  operating point information tnom=  25.000 temp=  25.000 *****
 ***** operating point status is all       simulation time is     0.     
    node    =voltage      node    =voltage      node    =voltage

 +0:100     =   1.0000  0:101     =   0.      0:vdd     =   1.0000 
 +0:vo+     =-197.0692u 0:vo-     =-197.0695u 0:vss     =  -1.0000 
 +1:1       = 325.7934m 1:2       = 602.5215m 1:3       = 450.8562m
 +1:4       = 854.8062m 1:5       = 854.8062m 1:6       =-444.1419m
 +1:7       = 273.1659m 1:8       =-868.1735m 1:9       =-868.1735m
 +1:10      =-400.0487m 1:11      = 955.2385m 1:12      = 196.2506m
 +1:13      = 196.2506m 1:14      =-219.0443m 1:15      =-219.0443m
 +2:1       = 287.0453m 3:1       = 287.0453m 4:2       =-302.1979m
 +5:2       =-302.1979m


 **** voltage sources

 subckt                                              
 element  0:vdd      0:vss      0:vcm      0:vs      
  volts      1.0000    -1.0000     1.0000     0.     
  current -466.0004u  466.0004u    0.      -466.0004u
  power    466.0004u  466.0004u    0.         0.     

     total voltage source power dissipation=  932.0008u       watts



 **** current sources

 subckt   x1        
 element  1:ib      
  volts      1.3258 
  current   10.0000u
  power    -13.2579u


     total current source power dissipation= -13.2579u       watts


 **** mosfets


 subckt   x1         x1         x1         x1         x1         x1        
 element  1:m01      1:m02      1:m03      1:m04      1:m05      1:m06     
 model    0:cmosp    0:cmosp    0:cmosp    0:cmosp    0:cmosp    0:cmosp   
 region     Saturati   Saturati   Saturati   Saturati   Saturati   Saturati
  id       -92.7967u  -92.7967u  -78.4522u  -78.4522u  -70.3268u  -70.3268u
  ibs        0.         0.         0.         0.         0.         0.     
  ibd        0.         0.         0.         0.         0.         0.     
  vgs     -602.5215m -602.5215m -549.1438m -549.1438m -658.5556m -658.5556m
  vds       -1.4707    -1.4707  -145.1938m -145.1938m -855.0033m -855.0033m
  vbs      397.4785m  397.4785m    0.         0.       145.1938m  145.1938m
  vth     -597.1322m -597.1322m -444.3206m -444.3206m -487.5106m -487.5106m
  vdsat    -64.7265m  -64.7265m -107.8058m -107.8058m -157.1349m -157.1349m
  vod       -5.3893m   -5.3893m -104.8232m -104.8232m -171.0450m -171.0450m
  beta      68.1300m   68.1300m   15.0761m   15.0761m    4.8904m    4.8904m
  gam eff  522.2123m  522.2123m  530.6820m  530.6820m  527.1898m  527.1898m
  gm         1.9236m    1.9236m    1.1441m    1.1441m  742.5489u  742.5489u
  gds       16.3361u   16.3361u   75.2224u   75.2224u    6.8200u    6.8200u
  gmb      505.8995u  505.8995u  348.2905u  348.2905u  215.0841u  215.0841u
  cdtot    185.6289f  185.6289f  119.6948f  119.6948f   36.1694f   36.1694f
  cgtot    264.4239f  264.4239f  232.6299f  232.6299f   79.2509f   79.2509f
  cstot    242.8691f  242.8691f  187.5246f  187.5246f   62.6476f   62.6476f
  cbtot    231.6141f  231.6141f  179.1556f  179.1556f   54.4342f   54.4342f
  cgs      153.4817f  153.4817f  172.6232f  172.6232f   60.2618f   60.2618f
  cgd       97.0029f   97.0029f   51.8481f   51.8481f   16.8293f   16.8293f



 subckt   x1         x1         x1         x1         x1         x1        
 element  1:m07      1:m08      1:m09      1:m10      1:m11      1:m12     
 model    0:cmosn    0:cmosn    0:cmosn    0:cmosn    0:cmosp    0:cmosn   
 region     Saturati   Saturati   Saturati   Saturati   Saturati   Saturati
  id        70.3268u   70.3268u  170.4662u  170.4662u  -10.0000u    9.6290u
  ibs        0.         0.         0.         0.         0.         0.     
  ibd        0.         0.         0.         0.         0.         0.     
  vgs      649.1292m  649.1292m  599.9513m  599.9513m -674.2066m  599.9513m
  vds      867.9764m  867.9764m  131.8265m  131.8265m -674.2066m  599.9513m
  vbs     -131.8265m -131.8265m    0.         0.         0.         0.     
  vth      509.6504m  509.6504m  477.9163m  477.9163m -442.6878m  462.6186m
  vdsat    116.1346m  116.1346m  103.3762m  103.3762m -192.2525m  111.7534m
  vod      139.4788m  139.4788m  122.0350m  122.0350m -231.5188m  137.3327m
  beta       7.3583m    7.3583m   27.8791m   27.8791m  421.8595u    1.1023m
  gam eff  574.9858m  574.9858m  576.4327m  576.4327m  527.0619m  566.2301m
  gm       890.2764u  890.2764u    2.2780m    2.2780m   80.6199u  125.7384u
  gds        9.0321u    9.0321u  306.3690u  306.3690u    1.0309u    1.5960u
  gmb      222.1771u  222.1771u  602.1480u  602.1480u   24.4742u   33.3079u
  cdtot     14.4483f   14.4620f   55.7068f   55.7068f    4.9862f    3.8698f
  cgtot     32.0316f   32.0316f  122.7784f  122.7784f    6.8158f    4.8292f
  cstot     23.1406f   23.1406f   88.6000f   88.6000f    5.7231f    3.7320f
  cbtot     20.0335f   20.0471f   77.6823f   77.6823f    6.9540f    4.9933f
  cgs       23.8311f   23.8311f   89.7272f   89.7272f    5.1880f    3.5947f
  cgd        6.7784f    6.7784f   27.3267f   27.3267f    1.4340f    1.0179f



 subckt   x1         x1         x1         x1         x1         x1        
 element  1:m13      1:m14      1:m15      1:m16      1:m17      1:m18     
 model    0:cmosp    0:cmosp    0:cmosn    0:cmosp    0:cmosp    0:cmosn   
 region       Linear     Linear   Saturati   Saturati   Saturati   Saturati
  id       -92.7967u  -92.7967u    9.5804u   -9.5804u -185.5934u    9.6726u
  ibs        0.         0.         0.         0.         0.         0.     
  ibd        0.         0.         0.         0.         0.         0.     
  vgs       -1.0002    -1.0002   599.9513m -549.1438m -629.4451m  599.9513m
  vds      -44.7615m  -44.7615m    1.4509  -549.1438m -352.7170m    1.2732 
  vbs        0.         0.         0.         0.        44.7615m    0.     
  vth     -444.3847m -444.3847m  455.5442m -443.6667m -458.0259m  457.1766m
  vdsat   -426.2738m -426.2738m  115.7582m -107.0837m -155.2133m  114.8298m
  vod     -555.8123m -555.8123m  144.4071m -105.4771m -171.4193m  142.7747m
  beta       4.1535m    4.1535m  955.3709u    1.6702m   13.8667m  992.0876u
  gam eff  530.4390m  530.4390m  564.6025m  529.8218m  529.6418m  565.0544m
  gm       153.7958u  153.7958u  119.4438u  142.5664u    1.9767m  121.8943u
  gds        1.9588m    1.9588m    1.1026u    1.3528u   36.7087u    1.1496u
  gmb       61.4461u   61.4461u   31.5864u   43.0157u  594.9889u   32.2437u
  cdtot     59.9847f   59.9847f    3.3953f   13.9205f  105.9866f    3.4928f
  cgtot     80.3082f   80.3082f    4.1930f   25.6094f  221.7170f    4.3522f
  cstot     47.6489f   47.6489f    3.2699f   20.9337f  177.7666f    3.3855f
  cbtot     59.6213f   59.6213f    4.3978f   20.8687f  160.7389f    4.5255f
  cgs       44.0903f   44.0903f    3.1279f   19.1001f  168.1994f    3.2450f
  cgd       36.5797f   36.5797f  881.9474a    5.5307f   47.2130f  915.8111a



 subckt   x1         x1         x1         x1         x1.x1      x1.x1     
 element  1:m19      1:m20      1:m21      1:m22      2:m1       2:m2      
 model    0:cmosp    0:cmosp    0:cmosp    0:cmosn    0:cmosp    0:cmosp   
 region     Saturati   Saturati   Saturati   Saturati   Saturati   Saturati
  id        -9.6726u   -9.6290u  -10.0062u   10.0062u   -8.1254u  -15.2264u
  ibs        0.         0.         0.         0.         0.         0.     
  ibd        0.         0.         0.         0.         0.         0.     
  vgs     -726.8341m -674.2066m -674.2066m  555.8581m -567.7609m -712.9547m
  vds     -726.8341m   -1.4000    -1.4441   555.8581m -567.7609m -803.7494m
  vbs        0.         0.         0.         0.       145.1938m    0.     
  vth     -441.9742m -441.3704m -441.3584m  470.2962m -487.7410m -442.8348m
  vdsat   -228.5077m -192.8701m -192.9942m   83.8615m  -94.6800m -220.9467m
  vod     -284.8599m -232.8362m -232.8482m   85.5619m  -80.0199m -270.1198m
  beta     275.4333u  383.1061u  396.8317u    2.4921m    2.0211m  470.5647u
  gam eff  525.1306m  526.6825m  526.8249m  572.1572m  526.8556m  528.1412m
  gm        62.5934u   76.4294u   79.3469u  169.9621u  134.9805u  103.9678u
  gds      915.8015n  685.4079n  703.8893n    1.9787u    1.2265u    1.3016u
  gmb       19.1105u   23.0968u   23.9817u   45.2435u   38.7121u   31.8904u
  cdtot      3.9137f    4.2764f    4.3482f    6.3610f   14.5370f    3.5266f
  cgtot      4.4955f    6.1858f    6.4075f   10.6399f   30.8502f    7.6727f
  cstot      3.8549f    5.2142f    5.3927f    7.9556f   24.5814f    6.3680f
  cbtot      5.2880f    6.0859f    6.2140f    8.6377f   22.0440f    5.6579f
  cgs        3.4290f    4.7054f    4.8738f    7.7283f   22.7550f    5.8465f
  cgd      943.8678a    1.3002f    1.3470f    2.3057f    6.8177f    1.6150f



 subckt   x1.x1      x1.x1      x1.x2      x1.x2      x1.x2      x1.x2     
 element  2:m3       2:m4       3:m1       3:m2       3:m3       3:m4      
 model    0:cmosn    0:cmosn    0:cmosp    0:cmosp    0:cmosn    0:cmosn   
 region     Saturati   Saturati   Saturati   Saturati   Saturati   Saturati
  id         8.1254u   15.2264u   -8.1254u  -15.2264u    8.1254u   15.2264u
  ibs        0.         0.         0.         0.         0.         0.     
  ibd        0.         0.         0.         0.         0.         0.     
  vgs      555.8581m  555.8581m -567.7609m -712.9547m  555.8581m  555.8581m
  vds        1.2870     1.1963  -567.7609m -803.7494m    1.2870     1.1963 
  vbs        0.         0.       145.1938m    0.         0.         0.     
  vth      465.4883m  469.3901m -487.7410m -442.8348m  465.4883m  469.3901m
  vdsat     86.3069m   84.3507m  -94.6800m -220.9467m   86.3069m   84.3507m
  vod       90.3698m   86.4680m  -80.0199m -270.1198m   90.3698m   86.4680m
  beta       1.7736m    3.5607m    2.0211m  470.5647u    1.7736m    3.5607m
  gam eff  571.5761m  574.2230m  526.8556m  528.1412m  571.5761m  574.2230m
  gm       133.5304u  255.0410u  134.9805u  103.9678u  133.5304u  255.0410u
  gds        1.1949u    2.2783u    1.2265u    1.3016u    1.1949u    2.2783u
  gmb       35.4806u   67.6324u   38.7121u   31.8904u   35.4806u   67.6324u
  cdtot      3.1493f    6.1978f   14.5370f    3.5266f    3.1493f    6.1978f
  cgtot      7.6043f   15.2054f   30.8502f    7.6727f    7.6043f   15.2054f
  cstot      5.7040f   11.2273f   24.5814f    6.3680f    5.7040f   11.2273f
  cbtot      4.7890f    9.3140f   22.0440f    5.6579f    4.7890f    9.3140f
  cgs        5.5435f   11.0405f   22.7550f    5.8465f    5.5435f   11.0405f
  cgd        1.6405f    3.2930f    6.8177f    1.6150f    1.6405f    3.2930f



 subckt   x1.x3      x1.x3      x1.x3      x1.x3      x1.x4      x1.x4     
 element  4:m1       4:m2       4:m3       4:m4       5:m1       5:m2      
 model    0:cmosp    0:cmosp    0:cmosn    0:cmosn    0:cmosp    0:cmosp   
 region     Saturati   Saturati   Saturati   Saturati   Saturati   Saturati
  id       -14.7381u   -7.3427u   14.7381u    7.3427u  -14.7381u   -7.3427u
  ibs        0.         0.         0.         0.         0.         0.     
  ibd        0.         0.         0.         0.         0.         0.     
  vgs     -726.8341m -726.8341m  697.8021m  565.9756m -726.8341m -726.8341m
  vds       -1.2190    -1.3022   780.9557m  565.9756m   -1.2190    -1.3022 
  vbs        0.         0.         0.      -131.8265m    0.         0.     
  vth     -442.0671m -440.6555m  454.3782m  509.3692m -442.0671m -440.6555m
  vdsat   -230.7734m -229.0552m  169.6091m   72.4521m -230.7734m -229.0552m
  vod     -284.7671m -286.1786m  243.4239m   56.6064m -284.7671m -286.1786m
  beta     402.3824u  200.1834u  576.1729u    2.9289m  402.3824u  200.1834u
  gam eff  527.6999m  524.5545m  560.5411m  573.2522m  527.6999m  524.5545m
  gm        94.6463u   47.0435u  112.5026u  140.7374u   94.6463u   47.0435u
  gds      965.1292n  488.4704n    1.5779u    1.5648u  965.1292n  488.4704n
  gmb       28.9970u   14.3056u   29.3182u   35.7178u   28.9970u   14.3056u
  cdtot      2.9117f    1.5044f    1.1609f    5.2864f    2.9117f    1.5044f
  cgtot      6.5779f    3.2639f    2.5358f   11.9546f    6.5779f    3.2639f
  cstot      5.4849f    2.8159f    2.0220f    8.7487f    5.4849f    2.8159f
  cbtot      4.7650f    2.5208f    1.7996f    7.6007f    4.7650f    2.5208f
  cgs        5.0127f    2.4886f    1.9110f    8.4589f    5.0127f    2.4886f
  cgd        1.3834f  684.5940a  529.7815a    2.7006f    1.3834f  684.5940a



 subckt   x1.x4      x1.x4     
 element  5:m3       5:m4      
 model    0:cmosn    0:cmosn   
 region     Saturati   Saturati
  id        14.7381u    7.3427u
  ibs        0.         0.     
  ibd        0.         0.     
  vgs      697.8021m  565.9756m
  vds      780.9557m  565.9756m
  vbs        0.      -131.8265m
  vth      454.3782m  509.3692m
  vdsat    169.6091m   72.4521m
  vod      243.4239m   56.6064m
  beta     576.1729u    2.9289m
  gam eff  560.5411m  573.2522m
  gm       112.5026u  140.7374u
  gds        1.5779u    1.5648u
  gmb       29.3182u   35.7178u
  cdtot      1.1609f    5.2864f
  cgtot      2.5358f   11.9546f
  cstot      2.0220f    8.7487f
  cbtot      1.7996f    7.6007f
  cgs        1.9110f    8.4589f
  cgd      529.7815a    2.7006f







 ****     small-signal transfer characteristics

      v(vo+,vo-)/vs                            =  127.3974p
      input resistance at             vs       =   17.9836k
      output resistance at v(vo+,vo-)          =   26.2666x



 ***************************************************
   ******   pole/zero analysis  
  
  
    input =  0:vs          output = v(vo+,vo-)
  
       poles (rad/sec)                 poles ( hertz)
 real            imag            real            imag            
 -65.7653k       0.              -10.4669k       0.              
 -52.9320x       0.              -8.42440x       0.              
 -245.953x       0.              -39.1446x       0.              
 -531.129x       253.635x        -84.5317x       40.3673x        
 -531.129x       -253.635x       -84.5317x       -40.3673x       
 -967.872x       1.89675g        -154.042x       301.878x        
 -967.872x       -1.89675g       -154.042x       -301.878x       
 -1.31783g       3.25646g        -209.740x       518.281x        
 -1.31783g       -3.25646g       -209.740x       -518.281x       
 -1.37479g       0.              -218.805x       0.              
 -1.53257g       -1.09202g       -243.917x       -173.800x       
 -1.53257g       1.09202g        -243.917x       173.800x        
 -2.67938g       -2.62184g       -426.436x       -417.278x       
 -2.67938g       2.62184g        -426.436x       417.278x        
 -3.47045g       0.              -552.340x       0.              
 -5.56703g       0.              -886.020x       0.              
 -6.62653g       0.              -1.05465g       0.              
 -9.12681g       0.              -1.45258g       0.              
 -11.9350g       0.              -1.89952g       0.              
 -12.6331g       0.              -2.01062g       0.              
 -22.7274g       0.              -3.61718g       0.              
  
       zeros (rad/sec)                 zeros ( hertz)
 real            imag            real            imag            
 -65.7657k       0.              -10.4669k       0.              
 -79.0006x       -244.815x       -12.5733x       -38.9636x       
 -79.0006x       244.815x        -12.5733x       38.9636x        
 -179.118x       0.              -28.5075x       0.              
 -967.872x       1.89675g        -154.042x       301.878x        
 -967.872x       -1.89675g       -154.042x       -301.878x       
 -1.31784g       3.25646g        -209.740x       518.281x        
 -1.31784g       -3.25646g       -209.740x       -518.281x       
 -1.38428g       579.704x        -220.315x       92.2628x        
 -1.38428g       -579.704x       -220.315x       -92.2628x       
 -1.86301g       954.624x        -296.508x       151.933x        
 -1.86301g       -954.624x       -296.508x       -151.933x       
 -2.74411g       4.43038g        -436.739x       705.116x        
 -2.74411g       -4.43038g       -436.739x       -705.116x       
 -3.29325g       0.              -524.137x       0.              
 -5.56703g       0.              -886.020x       0.              
 -6.60795g       0.              -1.05169g       0.              
 -11.4821g       -1.45923g       -1.82744g       -232.244x       
 -11.4821g       1.45923g        -1.82744g       232.244x        
 -11.9350g       0.              -1.89952g       0.              
 -26.1225g       0.              -4.15752g       0.              
  
  ***** constant factor = 42.6585m

          ***** job concluded
1****** HSPICE -- F-2011.09 64-BIT (Sep  5 2011) linux ******                   
 ******  
 * eesm5120 amplifier design

  ******  job statistics summary tnom=  25.000 temp=  25.000 *****
  
  
 ******  Machine Information  ******
 CPU:
 model name	: Intel(R) Xeon(R) CPU E5-2690 0 @ 2.90GHz
 cpu MHz	: 2900.000
  
 OS:
 Linux version 2.6.32-754.28.1.el6.x86_64 (mockbuild@x86-02.bsys.centos.org) (gc
 c version 4.4.7 20120313 (Red Hat 4.4.7-23) (GCC) ) #1 SMP Wed Mar 11 18:38:45 
 UTC 2020


  ******  HSPICE Threads Information  ******

  Command Line Threads Count :     1
  Available CPU Count        :    32
  Actual Threads Count       :     1


  ******  Circuit Statistics  ******
  # nodes       =      26 # elements   =      45
  # resistors   =       0 # capacitors =       2 # inductors   =       0
  # mutual_inds =       0 # vccs       =       0 # vcvs        =       0
  # cccs        =       0 # ccvs       =       0 # volt_srcs   =       4
  # curr_srcs   =       1 # diodes     =       0 # bjts        =       0
  # jfets       =       0 # mosfets    =      38 # U elements  =       0
  # T elements  =       0 # W elements =       0 # B elements  =       0
  # S elements  =       0 # P elements =       0 # va device   =       0
  # vector_srcs =       0


  ******  Runtime Statistics (seconds)  ******

  analysis           time    # points   tot. iter  conv.iter
  op point           0.01           1          37
  dc sweep           1.56       10001       20037
  ac analysis        0.00         871         871
  readin             0.00
  errchk             0.00
  setup              0.00
  output             0.00


           peak memory used        129.49 megabytes
           total cpu time            1.57 seconds
           total elapsed time        1.74 seconds
           job started at     23:11:45 04/07/2021
           job ended   at     23:11:47 04/07/2021


 lic: Release hspice token(s) 
